1
    SWAT Jun 01 2011    VER 2009/Rev. 481                                                                0/ 0/   0      0: 0: 0

    General Input/Output section (file.cio):                                        
    2013/12/18 0:00:00 ARCGIS-SWAT interface AV                                     
                                                                                    
         Number of years in run:   10
         Area of watershed:     5041.754 km2
         Random number generator cycles: 0, use default numbers

         Initial random number seed: wet/dry day prob        748932582
         Initial random number seed: radiation              1948832765
         Initial random number seed: precipitation           857034417
         Initial random number seed: 0.5 hr rainfall          67377721
         Initial random number seed: wind speed              366304404
         Initial random number seed: irrigation             1094585182
         Initial random number seed: relative humidity      1767585417
         Initial random number seed: max temperature         608439319
         Initial random number seed: min temperature         592757081

         Precipitation data used in run:
          Multiple gages read for watershed
             Daily rainfall data used

         Temperature data used in run:
          Multiple gages read for watershed

         PET method used: Penman-Monteith

         Rainfall/Runoff/Routing Option:
          Daily rainfall data
          Runoff estimated with curve number method
          Daily stream routing
           Muskingum routing method
           Channel dimensions remain constant
           Subbasin algae/CBOD loadings modeled
           In-stream nutrient transformations modeled using QUAL2E equations

         Subbasin Input Summary:
          Sub Latitude  Elev(m) #HRUs Ponds Elevbnds Wetlnd
            1    25.50   705.52     3                   
            2    25.46   752.84     8                   
            3    25.51   776.39     6                   
            4    25.49   759.39     7                   
            5    25.45   672.18     9                   
            6    25.43   573.28    12                   
            7    25.41   666.43     5                   
            8    25.46   707.01     5                   
            9    25.40   604.10    11                   
           10    25.45   503.64     2                   
           11    25.46   558.11     2                   
           12    25.43   728.13     9                   
           13    25.41   596.76     8                   
           14    25.41   529.24     7                   
           15    25.37   307.01     8                   
           16    25.37   783.31     5                   
           17    25.35   609.30     7                   
           18    25.37   477.91    10                   
           19    25.38   582.30     5                   
           20    25.36   408.28    12                   
           21    25.36   488.09     7                   
           22    25.33   395.74     5                   
           23    25.32   333.15     9                   
           24    25.32   344.71     9                   
           25    25.33   295.10     7                   
           26    25.37   512.86     4                   
           27    25.34   347.25     4                   
           28    25.27   511.67     3                   
           29    25.33   605.76     3                   
           30    25.29   382.70     4                   
           31    25.30   436.80    15                   
           32    25.27   618.23     4                   
           33    25.29   730.86     5                   
           34    25.32   297.08    14                   
           35    25.30   330.08     5                   
           36    25.28   678.00     8                   
           37    25.26   372.75    12                   
           38    25.26   461.76     3                   
           39    25.23   266.68     5                   
           40    25.24   378.05     3                   
           41    25.20   272.22    11                   
           42    25.25   457.41     5                   
           43    25.24   575.16    11                   
           44    25.26   389.45    14                   
           45    25.25   477.40     7                   
           46    25.24   325.10     3                   
           47    25.22   309.57     6                   
           48    25.19   309.20    11                   
           49    25.19   294.19    15                   
           50    25.18   136.03     6                   
           51    25.20   771.76     8                   
           52    25.19   864.46     9                   
           53    25.15   673.32    11                   
           54    25.16   124.81     7                   
           55    25.20   321.36    11                   
           56    25.15   229.00    10                   
           57    25.20   190.97    16                   
           58    25.15   199.41     6                   
           59    25.19   748.79     4                   
           60    25.16   607.88     5                   
           61    25.13   831.09     8                   
           62    25.16   375.82     6                   
           63    25.13   278.02     9                   
           64    25.13   107.22    19                   
           65    25.11   404.14    13                   
           66    25.12    92.10     7                   
           67    25.20   231.03    12                   
           68    25.12   229.52    13                   
           69    25.15   509.33     5                   
           70    25.13   372.32    12                   
           71    25.10   561.37     8                   
           72    25.10    90.23    18                   
           73    25.08   139.71    18                   
           74    25.12   361.49    14                   
           75    25.10   210.10     9                   
           76    25.06    56.36     2                   
           77    25.07    54.87    18                   
           78    25.05   262.01    10                   
           79    25.04   114.90    17                   
           80    25.05   284.99    16                   
           81    25.07   252.36    13                   
           82    25.03   377.67    10                   
           83    25.04   642.65     3                   
           84    25.01   208.27     7                   
           85    24.96   635.61     5                   
           86    24.96   691.83     5                   
           87    24.98    91.78    15                   
           88    24.99    47.07    13                   
           89    25.04   180.02    18                   
           90    25.03   118.88    18                   
           91    24.97    53.18    16                   
           92    24.97    40.56    12                   
           93    24.96    45.19    13                   
           94    24.95    82.55    11                   
           95    24.97   274.22    10                   
           96    24.91   380.41     9                   
           97    24.92   573.84     8                   
           98    24.92   254.63    13                   
           99    24.90   600.55     7                   

         HRU Input Summary Table 1:
          Sub   HRU   Area(ha) Slope SlpLgth(m) Ovrlnd_N CondII_CN TimeConc(hr) ESCO EPCO
            1     1     264.66 0.301       9.15    0.200     70.00        0.189 0.50 0.10
            1     2     899.88 0.446       9.15    0.200     57.00        0.320 0.50 0.10
            1     3    1950.72 0.402       9.15    0.200     57.00        0.535 0.50 0.10
            2     4     505.23 0.309       9.15    0.200     70.00        0.186 0.50 0.10
            2     5     139.33 0.203      15.24    0.200     73.00        0.199 0.50 0.10
            2     6     124.87 0.001     121.95    0.200     73.00        3.023 0.50 0.10
            2     7    1837.92 0.415       9.15    0.200     57.00        0.329 0.50 0.10
            2     8    2000.93 0.424       9.15    0.200     57.00        0.346 0.50 0.10
            2     9     186.32 0.268       9.15    0.200     90.56        0.149 0.85 0.10
            2    10      39.98 0.137      24.39    0.200     94.90        0.269 0.85 0.10
            2    11      36.65 0.001     121.95    0.200     94.90        3.009 0.85 0.10
            3    12    2618.05 0.401       9.15    0.200     63.00        0.510 0.50 0.10
            3    13    4092.33 0.378       9.15    0.200     57.00        0.705 0.50 0.10
            3    14     461.68 0.322       9.15    0.200     76.00        0.201 0.85 0.10
            3    15     149.00 0.292       9.15    0.200     94.90        0.149 0.85 0.10
            3    16     225.39 0.329       9.15    0.200     90.56        0.159 0.85 0.10
            3    17     137.20 0.255       9.15    0.200     90.56        0.151 0.85 0.10
            4    18     250.91 0.279       9.15    0.200     73.00        0.150 0.50 0.10
            4    19     218.22 0.312       9.15    0.200     70.00        0.142 0.50 0.10
            4    20     156.69 0.316       9.15    0.200     70.00        0.135 0.50 0.10
            4    21    2619.22 0.374       9.15    0.200     63.00        0.362 0.50 0.10
            4    22    4055.17 0.407       9.15    0.200     57.00        0.479 0.50 0.10
            4    23     729.62 0.312       9.15    0.200     82.00        0.197 0.85 0.10
            4    24     521.63 0.282       9.15    0.200     76.00        0.179 0.85 0.10
            5    25      67.00 0.279       9.15    0.200     73.00        0.142 0.50 0.10
            5    26     143.38 0.254       9.15    0.200     70.00        0.168 0.50 0.10
            5    27      53.38 0.177      18.29    0.200     73.00        0.224 0.50 0.10
            5    28      20.23 0.002     121.95    0.200     73.00        2.447 0.50 0.10
            5    29    1422.44 0.417       9.15    0.200     63.00        0.459 0.50 0.10
            5    30     641.72 0.483       9.15    0.200     57.00        0.276 0.50 0.10
            5    31     961.01 0.401       9.15    0.200     57.00        0.357 0.50 0.10
            5    32     189.48 0.284       9.15    0.200     82.00        0.177 0.85 0.10
            5    33     232.51 0.350       9.15    0.200     76.00        0.182 0.85 0.10
            6    34     161.57 0.333       9.15    0.200     73.00        0.149 0.50 0.10
            6    35      95.22 0.177      18.29    0.200     62.00        0.228 0.50 0.10
            6    36      24.31 0.003     121.95    0.200     62.00        2.166 0.50 0.10
            6    37    1395.74 0.418       9.15    0.200     63.00        0.355 0.50 0.10
            6    38     553.32 0.498       9.15    0.200     57.00        0.210 0.50 0.10
            6    39     409.36 0.311       9.15    0.200     82.00        0.199 0.85 0.10
            6    40     584.43 0.266       9.15    0.200     65.00        0.236 0.85 0.10
            6    41      64.98 0.243      15.24    0.200     94.90        0.183 0.85 0.10
            6    42      32.11 0.002     121.95    0.200     94.90        2.448 0.85 0.10
            6    43      53.30 0.207      15.24    0.200     82.50        0.189 0.85 0.10
            6    44      23.26 0.002     121.95    0.200     90.56        2.445 0.85 0.10
            6    45      45.00 0.155      24.39    0.200     90.56        0.264 0.85 0.10
            7    46    2790.08 0.426       9.15    0.200     63.00        0.510 0.50 0.10
            7    47    2481.49 0.493       9.15    0.200     44.00        0.466 0.50 0.10
            7    48     828.14 0.338       9.15    0.200     82.00        0.251 0.85 0.10
            7    49     489.46 0.309       9.15    0.200     76.00        0.202 0.85 0.10
            7    50     606.58 0.364       9.15    0.200     65.00        0.215 0.85 0.10
            8    51     547.63 0.303       9.15    0.200     70.00        0.217 0.50 0.10
            8    52     209.43 0.321       9.15    0.200     70.00        0.157 0.50 0.10
            8    53    4353.66 0.412       9.15    0.200     63.00        0.737 0.50 0.10
            8    54    3602.72 0.392       9.15    0.200     57.00        0.642 0.50 0.10
            8    55    1116.19 0.311       9.15    0.200     82.00        0.306 0.85 0.10
            9    56      94.95 0.293       9.15    0.200     62.00        0.136 0.50 0.10
            9    57     168.27 0.260       9.15    0.200     70.00        0.153 0.50 0.10
            9    58     100.82 0.262       9.15    0.200     73.00        0.141 0.50 0.10
            9    59     421.58 0.412       9.15    0.200     57.00        0.179 0.50 0.10
            9    60     805.38 0.393       9.15    0.200     44.00        0.237 0.50 0.10
            9    61    1186.46 0.330       9.15    0.200     65.00        0.296 0.85 0.10
            9    62     642.67 0.315       9.15    0.200     76.00        0.221 0.85 0.10
            9    63      68.43 0.281       9.15    0.200     82.50        0.132 0.85 0.10
            9    64      48.36 0.227      15.24    0.200     90.56        0.181 0.85 0.10
            9    65      84.30 0.262       9.15    0.200     94.90        0.138 0.85 0.10
            9    66      26.00 0.001     121.95    0.200     94.90        3.008 0.85 0.10
           10    67    4965.47 0.437       9.15    0.200     64.00        1.350 0.50 0.10
           10    68     723.26 0.312       9.15    0.200     83.00        0.345 0.50 0.10
           11    69   11834.17 0.430       9.15    0.200     64.00        1.289 0.50 0.10
           11    70    1359.85 0.312       9.15    0.200     83.00        0.292 0.50 0.10
           12    71     371.95 0.281       9.15    0.200     71.00        0.174 0.50 0.10
           12    72     243.78 0.266       9.15    0.200     63.00        0.159 0.50 0.10
           12    73     234.96 0.235      15.24    0.200     71.00        0.206 0.50 0.10
           12    74      70.25 0.001     121.95    0.200     71.00        3.015 0.50 0.10
           12    75    2091.28 0.397       9.15    0.200     58.00        0.366 0.50 0.10
           12    76    1760.75 0.401       9.15    0.200     45.00        0.329 0.50 0.10
           12    77    1110.30 0.393       9.15    0.200     58.00        0.255 0.50 0.10
           12    78     486.95 0.316       9.15    0.200     77.00        0.186 0.50 0.10
           12    79     662.64 0.295       9.15    0.200     77.00        0.210 0.50 0.10
           13    80     420.55 0.246      15.24    0.200     71.00        0.256 0.50 0.10
           13    81     114.35 0.001     121.95    0.200     74.00        3.031 0.50 0.10
           13    82      96.90 0.180      18.29    0.200     74.00        0.228 0.50 0.10
           13    83    1207.04 0.373       9.15    0.200     45.00        0.336 0.50 0.10
           13    84    1794.68 0.385       9.15    0.200     58.00        0.429 0.50 0.10
           13    85     961.22 0.296       9.15    0.200     77.00        0.302 0.50 0.10
           13    86     222.70 0.267       9.15    0.200     91.18        0.171 0.50 0.10
           13    87      71.61 0.002     121.95    0.200     91.18        2.458 0.50 0.10
           14    88     207.19 0.234      15.24    0.200     74.00        0.226 0.50 0.10
           14    89     296.96 0.187      18.29    0.200     71.00        0.281 0.50 0.10
           14    90     117.15 0.002     121.95    0.200     71.00        2.474 0.50 0.10
           14    91    4145.55 0.363       9.15    0.200     64.00        0.915 0.50 0.10
           14    92     352.07 0.322       9.15    0.200     83.00        0.206 0.50 0.10
           14    93     393.41 0.295       9.15    0.200     66.00        0.218 0.50 0.10
           14    94     374.49 0.293       9.15    0.200     77.00        0.214 0.50 0.10
           15    95      70.94 0.180      18.29    0.200     71.00        0.222 0.50 0.10
           15    96      29.71 0.002     121.95    0.200     71.00        2.448 0.50 0.10
           15    97      29.17 0.178      18.29    0.200     74.00        0.212 0.50 0.10
           15    98      24.56 0.001     121.95    0.200     74.00        3.010 0.50 0.10
           15    99     351.30 0.347       9.15    0.200     64.00        0.190 0.50 0.10
           15   100     244.57 0.543       9.15    0.200     45.00        0.155 0.50 0.10
           15   101     578.58 0.283       9.15    0.200     83.00        0.242 0.50 0.10
           15   102     569.77 0.245      15.24    0.200     77.00        0.289 0.50 0.10
           16   103    5048.00 0.400       9.15    0.200     63.00        0.542 0.50 0.10
           16   104    5443.86 0.433       9.15    0.200     57.00        0.569 0.50 0.10
           16   105     724.24 0.316       9.15    0.200     82.00        0.193 0.85 0.10
           16   106     574.10 0.336       9.15    0.200     76.00        0.176 0.85 0.10
           16   107     791.35 0.286       9.15    0.200     76.00        0.203 0.85 0.10
           17   108     120.64 0.296       9.15    0.200     74.00        0.148 0.50 0.10
           17   109     283.62 0.235      15.24    0.200     63.00        0.237 0.50 0.10
           17   110    1210.75 0.385       9.15    0.200     64.00        0.353 0.50 0.10
           17   111    1406.75 0.378       9.15    0.200     45.00        0.388 0.50 0.10
           17   112     156.01 0.293       9.15    0.200     83.00        0.156 0.50 0.10
           17   113     275.64 0.277       9.15    0.200     66.00        0.185 0.50 0.10
           17   114     170.92 0.323       9.15    0.200     77.00        0.157 0.50 0.10
           18   115     426.52 0.232      15.24    0.200     71.00        0.262 0.50 0.10
           18   116      99.28 0.001     121.95    0.200     74.00        3.028 0.50 0.10
           18   117     125.36 0.144      24.39    0.200     74.00        0.290 0.50 0.10
           18   118     126.39 0.319       9.15    0.200     71.00        0.145 0.50 0.10
           18   119      39.90 0.159      24.39    0.200     74.00        0.262 0.50 0.10
           18   120      28.09 0.002     121.95    0.200     74.00        2.447 0.50 0.10
           18   121    1995.21 0.391       9.15    0.200     58.00        0.468 0.50 0.10
           18   122     121.90 0.151      24.39    0.200     91.18        0.285 0.50 0.10
           18   123     117.36 0.169      18.29    0.200     95.52        0.237 0.50 0.10
           18   124      81.66 0.001     121.95    0.200     95.52        3.024 0.50 0.10
           19   125    1059.98 0.416       9.15    0.200     63.00        0.359 0.50 0.10
           19   126    1038.59 0.410       9.15    0.200     44.00        0.355 0.50 0.10
           19   127     626.65 0.308       9.15    0.200     82.00        0.275 0.85 0.10
           19   128     437.34 0.353       9.15    0.200     65.00        0.227 0.85 0.10
           19   129     403.43 0.327       9.15    0.200     76.00        0.221 0.85 0.10
           20   130     304.19 0.261       9.15    0.200     74.00        0.172 0.50 0.10
           20   131     491.44 0.213      15.24    0.200     71.00        0.253 0.50 0.10
           20   132     311.09 0.158      24.39    0.200     74.00        0.304 0.50 0.10
           20   133     183.41 0.001     121.95    0.200     74.00        3.036 0.50 0.10
           20   134    5191.52 0.401       9.15    0.200     64.00        0.736 0.50 0.10
           20   135     736.00 0.331       9.15    0.200     83.00        0.226 0.50 0.10
           20   136     530.82 0.304       9.15    0.200     77.00        0.200 0.50 0.10
           20   137     113.80 0.001     121.95    0.200     95.52        3.024 0.50 0.10
           20   138     134.51 0.194      18.29    0.200     95.52        0.224 0.50 0.10
           20   139     199.04 0.192      18.29    0.200     91.18        0.235 0.50 0.10
           20   140     104.18 0.126      24.39    0.200     95.52        0.289 0.50 0.10
           20   141      83.68 0.001     121.95    0.200     95.52        3.019 0.50 0.10
           21   142    1567.17 0.480       9.15    0.200     44.00        0.410 0.50 0.10
           21   143    1043.37 0.382       9.15    0.200     65.00        0.324 0.85 0.10
           21   144     514.12 0.332       9.15    0.200     76.00        0.228 0.85 0.10
           21   145      39.19 0.293       9.15    0.200     82.50        0.128 0.85 0.10
           21   146      23.90 0.002     121.95    0.200     82.50        2.446 0.85 0.10
           21   147     102.53 0.245      15.24    0.200     90.56        0.194 0.85 0.10
           21   148      28.76 0.002     121.95    0.200     90.56        2.448 0.85 0.10
           22   149     156.86 0.429       9.15    0.200     63.00        0.182 0.50 0.10
           22   150     157.81 0.519       9.15    0.200     44.00        0.177 0.50 0.10
           22   151     139.16 0.439       9.15    0.200     57.00        0.174 0.50 0.10
           22   152     217.62 0.349       9.15    0.200     82.00        0.215 0.85 0.10
           22   153     328.86 0.367       9.15    0.200     76.00        0.259 0.85 0.10
           23   154      24.39 0.299       9.15    0.200     73.00        0.133 0.50 0.10
           23   155      11.77 0.001     121.95    0.200     73.00        3.012 0.50 0.10
           23   156       4.95 0.001     121.95    0.200     70.00        3.006 0.50 0.10
           23   157       9.72 0.147      24.39    0.200     70.00        0.264 0.50 0.10
           23   158      74.57 0.436       9.15    0.200     63.00        0.151 0.50 0.10
           23   159     146.61 0.372       9.15    0.200     82.00        0.194 0.85 0.10
           23   160      45.51 0.348       9.15    0.200     76.00        0.141 0.85 0.10
           23   161      21.40 0.309       9.15    0.200     94.90        0.130 0.85 0.10
           23   162      17.19 0.267       9.15    0.200     90.56        0.132 0.85 0.10
           24   163       4.43 0.003     121.95    0.200     73.00        2.163 0.50 0.10
           24   164      16.10 0.256       9.15    0.200     73.00        0.132 0.50 0.10
           24   165      26.69 0.297       9.15    0.200     70.00        0.134 0.50 0.10
           24   166      11.58 0.001     121.95    0.200     70.00        3.011 0.50 0.10
           24   167      16.22 0.470       9.15    0.200     63.00        0.112 0.50 0.10
           24   168      12.37 0.489       9.15    0.200     44.00        0.109 0.50 0.10
           24   169     218.13 0.320       9.15    0.200     82.00        0.230 0.85 0.10
           24   170      33.39 0.331       9.15    0.200     94.90        0.134 0.85 0.10
           24   171      25.97 0.283       9.15    0.200     90.56        0.135 0.85 0.10
           25   172      11.26 0.566       9.15    0.200     63.00        0.123 0.50 0.10
           25   173       6.19 0.643       9.15    0.200     57.00        0.108 0.50 0.10
           25   174      44.18 0.391       9.15    0.200     76.00        0.199 0.85 0.10
           25   175       2.34 0.659       9.15    0.200     94.90        0.098 0.85 0.10
           25   176       3.10 0.489       9.15    0.200     90.56        0.108 0.85 0.10
           25   177       4.78 0.457       9.15    0.200     92.00        0.114 0.50 0.10
           25   178       4.31 0.287       9.15    0.200     92.00        0.128 0.50 0.10
           26   179    3526.14 0.437       9.15    0.200     63.00        0.767 0.50 0.10
           26   180    1232.73 0.345       9.15    0.200     82.00        0.375 0.85 0.10
           26   181     542.44 0.333       9.15    0.200     65.00        0.240 0.85 0.10
           26   182     626.13 0.323       9.15    0.200     76.00        0.259 0.85 0.10
           27   183    3489.84 0.389       9.15    0.200     64.00        0.708 0.50 0.10
           27   184     561.11 0.348       9.15    0.200     83.00        0.231 0.50 0.10
           27   185     595.46 0.335       9.15    0.200     66.00        0.239 0.50 0.10
           27   186     378.58 0.284       9.15    0.200     83.00        0.203 0.50 0.10
           28   187    7030.84 0.411       9.15    0.200     64.00        0.886 0.50 0.10
           28   188    1018.83 0.321       9.15    0.200     83.00        0.257 0.50 0.10
           28   189     468.77 0.294       9.15    0.200     77.00        0.188 0.50 0.10
           29   190    2480.89 0.396       9.15    0.200     63.00        0.399 0.50 0.10
           29   191    1380.93 0.315       9.15    0.200     82.00        0.289 0.85 0.10
           29   192     931.79 0.306       9.15    0.200     76.00        0.239 0.85 0.10
           30   193     678.39 0.415       9.15    0.200     63.00        0.295 0.50 0.10
           30   194     734.41 0.348       9.15    0.200     82.00        0.314 0.85 0.10
           30   195     330.09 0.329       9.15    0.200     65.00        0.213 0.85 0.10
           30   196     303.59 0.330       9.15    0.200     76.00        0.206 0.85 0.10
           31   197     148.72 0.001     121.95    0.200     74.00        3.032 0.50 0.10
           31   198     409.40 0.285       9.15    0.200     74.00        0.190 0.50 0.10
           31   199     728.55 0.225      15.24    0.200     63.00        0.292 0.50 0.10
           31   200     832.50 0.255       9.15    0.200     71.00        0.258 0.50 0.10
           31   201    1600.22 0.374       9.15    0.200     64.00        0.351 0.50 0.10
           31   202    3529.21 0.405       9.15    0.200     45.00        0.591 0.50 0.10
           31   203    1617.40 0.374       9.15    0.200     58.00        0.353 0.50 0.10
           31   204    1174.39 0.271       9.15    0.200     66.00        0.304 0.50 0.10
           31   205     684.99 0.259       9.15    0.200     83.00        0.236 0.50 0.10
           31   206     143.87 0.001     121.95    0.200     95.52        3.032 0.50 0.10
           31   207     152.02 0.208      15.24    0.200     95.52        0.205 0.50 0.10
           31   208      99.50 0.002     121.95    0.200     83.12        2.460 0.50 0.10
           31   209     338.50 0.206      15.24    0.200     83.12        0.237 0.50 0.10
           31   210     270.75 0.218      15.24    0.200     95.52        0.223 0.50 0.10
           31   211     104.33 0.001     121.95    0.200     95.52        3.024 0.50 0.10
           32   212     565.70 0.425       9.15    0.200     63.00        0.231 0.50 0.10
           32   213     631.81 0.466       9.15    0.200     57.00        0.241 0.50 0.10
           32   214    1658.35 0.393       9.15    0.200     82.00        0.434 0.85 0.10
           32   215     737.91 0.335       9.15    0.200     76.00        0.272 0.85 0.10
           33   216     499.75 0.228      15.24    0.200     73.00        0.238 0.50 0.10
           33   217     187.67 0.002     121.95    0.200     73.00        2.467 0.50 0.10
           33   218    3487.93 0.459       9.15    0.200     57.00        0.476 0.50 0.10
           33   219    2967.44 0.347       9.15    0.200     82.00        0.436 0.85 0.10
           33   220    1831.53 0.370       9.15    0.200     76.00        0.321 0.85 0.10
           34   221      92.64 0.002     121.95    0.200     74.00        2.454 0.50 0.10
           34   222     285.47 0.130      24.39    0.200     74.00        0.307 0.50 0.10
           34   223     208.42 0.184      18.29    0.200     71.00        0.233 0.50 0.10
           34   224      76.64 0.001     121.95    0.200     71.00        3.015 0.50 0.10
           34   225     251.70 0.168      18.29    0.200     74.00        0.244 0.50 0.10
           34   226     184.26 0.001     121.95    0.200     74.00        3.030 0.50 0.10
           34   227    5017.47 0.410       9.15    0.200     64.00        0.612 0.50 0.10
           34   228     340.65 0.305       9.15    0.200     83.00        0.162 0.50 0.10
           34   229     309.11 0.325       9.15    0.200     66.00        0.156 0.50 0.10
           34   230     436.49 0.311       9.15    0.200     77.00        0.173 0.50 0.10
           34   231     186.52 0.001     121.95    0.200     95.52        3.030 0.50 0.10
           34   232     211.31 0.143      24.39    0.200     95.52        0.290 0.50 0.10
           34   233     362.56 0.137      24.39    0.200     95.52        0.312 0.50 0.10
           34   234     588.65 0.001     121.95    0.200     95.52        3.080 0.50 0.10
           35   235      36.54 0.355       9.15    0.200     74.00        0.127 0.50 0.10
           35   236      68.06 0.322       9.15    0.200     63.00        0.143 0.50 0.10
           35   237     440.06 0.431       9.15    0.200     64.00        0.260 0.50 0.10
           35   238     330.43 0.395       9.15    0.200     45.00        0.228 0.50 0.10
           35   239     373.96 0.375       9.15    0.200     66.00        0.244 0.50 0.10
           36   240     559.46 0.475       9.15    0.200     63.00        0.197 0.50 0.10
           36   241     613.21 0.456       9.15    0.200     57.00        0.206 0.50 0.10
           36   242     696.08 0.445       9.15    0.200     57.00        0.219 0.50 0.10
           36   243    1025.25 0.385       9.15    0.200     82.00        0.271 0.85 0.10
           36   244     635.76 0.376       9.15    0.200     76.00        0.215 0.85 0.10
           36   245    1387.27 0.334       9.15    0.200     76.00        0.325 0.85 0.10
           36   246     137.88 0.317       9.15    0.200     94.90        0.141 0.85 0.10
           36   247     180.30 0.298       9.15    0.200     90.56        0.151 0.85 0.10
           37   248     623.09 0.213      15.24    0.200     71.00        0.289 0.50 0.10
           37   249     206.61 0.001     121.95    0.200     74.00        3.046 0.50 0.10
           37   250     164.26 0.065      60.98    0.200     74.00        0.602 0.50 0.10
           37   251    3716.55 0.385       9.15    0.200     45.00        0.661 0.50 0.10
           37   252    1414.80 0.372       9.15    0.200     58.00        0.346 0.50 0.10
           37   253     524.80 0.311       9.15    0.200     66.00        0.213 0.50 0.10
           37   254     328.82 0.291       9.15    0.200     77.00        0.182 0.50 0.10
           37   255      55.48 0.002     121.95    0.200     83.12        2.452 0.50 0.10
           37   256      82.73 0.179      18.29    0.200     83.12        0.223 0.50 0.10
           37   257     223.98 0.232      15.24    0.200     91.18        0.216 0.50 0.10
           37   258      57.54 0.001     121.95    0.200     95.52        3.016 0.50 0.10
           37   259      86.45 0.084      60.98    0.200     95.52        0.545 0.50 0.10
           38   260     416.54 0.272       9.15    0.200     74.00        0.204 0.50 0.10
           38   261    4031.86 0.364       9.15    0.200     64.00        0.737 0.50 0.10
           38   262     424.27 0.299       9.15    0.200     83.00        0.202 0.50 0.10
           39   263     345.64 0.362       9.15    0.200     64.00        0.231 0.50 0.10
           39   264     451.59 0.389       9.15    0.200     45.00        0.260 0.50 0.10
           39   265     453.14 0.331       9.15    0.200     58.00        0.266 0.50 0.10
           39   266     119.09 0.386       9.15    0.200     83.00        0.154 0.50 0.10
           39   267     118.84 0.344       9.15    0.200     77.00        0.158 0.50 0.10
           40   268    2079.48 0.427       9.15    0.200     64.00        0.528 0.50 0.10
           40   269    1206.17 0.400       9.15    0.200     45.00        0.369 0.50 0.10
           40   270    1381.79 0.372       9.15    0.200     45.00        0.405 0.50 0.10
           41   271     281.69 0.078      60.98    0.200     63.00        0.595 0.50 0.10
           41   272      91.28 0.003     121.95    0.200     63.00        2.181 0.50 0.10
           41   273     173.28 0.204      15.24    0.200     63.00        0.214 0.50 0.10
           41   274      52.68 0.002     121.95    0.200     63.00        2.452 0.50 0.10
           41   275     912.70 0.318       9.15    0.200     64.00        0.278 0.50 0.10
           41   276    1032.64 0.338       9.15    0.200     45.00        0.295 0.50 0.10
           41   277     102.33 0.300       9.15    0.200     83.00        0.139 0.50 0.10
           41   278     135.90 0.310       9.15    0.200     66.00        0.145 0.50 0.10
           41   279     169.98 0.104      60.98    0.200     83.12        0.530 0.50 0.10
           41   280      53.74 0.001     121.95    0.200     95.52        3.016 0.50 0.10
           41   281      30.08 0.072      60.98    0.200     95.52        0.557 0.50 0.10
           42   282     274.31 0.198      18.29    0.200     70.00        0.242 0.50 0.10
           42   283    1504.66 0.417       9.15    0.200     63.00        0.306 0.50 0.10
           42   284    1483.08 0.424       9.15    0.200     44.00        0.303 0.50 0.10
           42   285     557.14 0.345       9.15    0.200     82.00        0.195 0.85 0.10
           42   286     717.37 0.272       9.15    0.200     76.00        0.224 0.85 0.10
           43   287     239.07 0.201      15.24    0.200     62.00        0.234 0.50 0.10
           43   288     139.64 0.166      18.29    0.200     70.00        0.244 0.50 0.10
           43   289      94.35 0.002     121.95    0.200     70.00        2.464 0.50 0.10
           43   290    1463.87 0.419       9.15    0.200     63.00        0.389 0.50 0.10
           43   291     750.13 0.362       9.15    0.200     44.00        0.267 0.50 0.10
           43   292     523.66 0.351       9.15    0.200     82.00        0.225 0.85 0.10
           43   293     522.55 0.286       9.15    0.200     76.00        0.232 0.85 0.10
           43   294      86.24 0.202      15.24    0.200     90.56        0.199 0.85 0.10
           43   295      49.10 0.001     121.95    0.200     90.56        3.017 0.85 0.10
           43   296      61.48 0.135      24.39    0.200     94.90        0.280 0.85 0.10
           43   297      67.18 0.001     121.95    0.200     94.90        3.021 0.85 0.10
           44   298     258.16 0.279       9.15    0.200     73.00        0.165 0.50 0.10
           44   299     354.35 0.184      18.29    0.200     70.00        0.265 0.50 0.10
           44   300      91.62 0.060      60.98    0.200     73.00        0.599 0.50 0.10
           44   301     258.26 0.000     121.95    0.200     73.00        6.038 0.50 0.10
           44   302    1899.13 0.442       9.15    0.200     63.00        0.379 0.50 0.10
           44   303     954.00 0.519       9.15    0.200     44.00        0.249 0.50 0.10
           44   304     869.89 0.330       9.15    0.200     82.00        0.251 0.85 0.10
           44   305     400.82 0.344       9.15    0.200     65.00        0.181 0.85 0.10
           44   306     620.95 0.335       9.15    0.200     76.00        0.215 0.85 0.10
           44   307     161.45 0.284       9.15    0.200     94.90        0.149 0.85 0.10
           44   308      40.59 0.002     121.95    0.200     94.90        2.448 0.85 0.10
           44   309     184.35 0.163      18.29    0.200     90.56        0.245 0.85 0.10
           44   310     294.78 0.000     121.95    0.200     94.90        6.044 0.85 0.10
           44   311     115.44 0.092      60.98    0.200     94.90        0.534 0.85 0.10
           45   312     270.68 0.220      15.24    0.200     70.00        0.231 0.50 0.10
           45   313      69.41 0.112      60.98    0.200     73.00        0.499 0.50 0.10
           45   314     199.00 0.000     121.95    0.200     73.00        6.035 0.50 0.10
           45   315    1170.68 0.439       9.15    0.200     63.00        0.317 0.50 0.10
           45   316     780.13 0.313       9.15    0.200     57.00        0.264 0.50 0.10
           45   317     617.52 0.329       9.15    0.200     82.00        0.234 0.85 0.10
           45   318     392.37 0.309       9.15    0.200     76.00        0.196 0.85 0.10
           46   319    5644.48 0.408       9.15    0.200     64.00        0.816 0.50 0.10
           46   320     307.80 0.274       9.15    0.200     66.00        0.174 0.50 0.10
           46   321     561.29 0.370       9.15    0.200     83.00        0.202 0.50 0.10
           47   322      69.74 0.226      15.24    0.200     74.00        0.183 0.50 0.10
           47   323      22.28 0.001     121.95    0.200     74.00        3.007 0.50 0.10
           47   324     160.07 0.206      15.24    0.200     71.00        0.202 0.50 0.10
           47   325      83.35 0.279       9.15    0.200     74.00        0.133 0.50 0.10
           47   326    3010.63 0.403       9.15    0.200     64.00        0.471 0.50 0.10
           47   327     245.52 0.344       9.15    0.200     83.00        0.151 0.50 0.10
           48   328      63.97 0.002     121.95    0.200     71.00        2.451 0.50 0.10
           48   329     242.63 0.195      18.29    0.200     71.00        0.237 0.50 0.10
           48   330     445.76 0.001     121.95    0.200     74.00        3.070 0.50 0.10
           48   331     313.89 0.110      60.98    0.200     74.00        0.533 0.50 0.10
           48   332    1353.40 0.321       9.15    0.200     45.00        0.291 0.50 0.10
           48   333    1815.62 0.368       9.15    0.200     45.00        0.339 0.50 0.10
           48   334    1341.59 0.334       9.15    0.200     58.00        0.288 0.50 0.10
           48   335     363.62 0.261       9.15    0.200     66.00        0.176 0.50 0.10
           48   336     255.43 0.281       9.15    0.200     66.00        0.158 0.50 0.10
           48   337     884.13 0.001     121.95    0.200     95.52        3.125 0.50 0.10
           48   338     468.03 0.091      60.98    0.200     95.52        0.582 0.50 0.10
           49   339     249.87 0.208      15.24    0.200     62.00        0.230 0.50 0.10
           49   340     218.01 0.146      24.39    0.200     70.00        0.306 0.50 0.10
           49   341     297.98 0.078      60.98    0.200     73.00        0.601 0.50 0.10
           49   342     104.84 0.003     121.95    0.200     73.00        2.185 0.50 0.10
           49   343    1330.45 0.413       9.15    0.200     63.00        0.345 0.50 0.10
           49   344    1120.58 0.391       9.15    0.200     44.00        0.313 0.50 0.10
           49   345     796.47 0.295       9.15    0.200     82.00        0.269 0.85 0.10
           49   346     908.85 0.325       9.15    0.200     65.00        0.284 0.85 0.10
           49   347     788.92 0.267       9.15    0.200     76.00        0.271 0.85 0.10
           49   348      57.26 0.166      18.29    0.200     82.50        0.223 0.85 0.10
           49   349     111.02 0.001     121.95    0.200     82.50        3.029 0.85 0.10
           49   350      34.13 0.001     121.95    0.200     90.56        3.012 0.85 0.10
           49   351     116.37 0.152      24.39    0.200     90.56        0.282 0.85 0.10
           49   352     108.15 0.073      60.98    0.200     94.90        0.574 0.85 0.10
           49   353      43.79 0.001     121.95    0.200     94.90        3.014 0.85 0.10
           50   354     297.47 0.290       9.15    0.200     64.00        0.187 0.50 0.10
           50   355     395.59 0.353       9.15    0.200     58.00        0.200 0.50 0.10
           50   356      44.76 0.256       9.15    0.200     92.00        0.134 0.50 0.10
           50   357      11.82 0.001     121.95    0.200     92.00        3.006 0.50 0.10
           50   358       7.92 0.001     121.95    0.200     92.00        3.005 0.50 0.10
           50   359      19.15 0.142      24.39    0.200     92.00        0.265 0.50 0.10
           51   360     148.11 0.001     121.95    0.200     70.00        3.029 0.50 0.10
           51   361     201.48 0.133      24.39    0.200     70.00        0.299 0.50 0.10
           51   362     147.17 0.098      60.98    0.200     73.00        0.528 0.50 0.10
           51   363     127.49 0.001     121.95    0.200     73.00        3.026 0.50 0.10
           51   364    2731.39 0.402       9.15    0.200     57.00        0.453 0.50 0.10
           51   365     820.05 0.228      15.24    0.200     76.00        0.291 0.85 0.10
           51   366    1294.67 0.257       9.15    0.200     76.00        0.301 0.85 0.10
           51   367     808.02 0.353       9.15    0.200     63.00        0.229 0.50 0.10
           52   368      53.70 0.001     121.95    0.200     73.00        3.014 0.50 0.10
           52   369     110.54 0.155      24.39    0.200     73.00        0.275 0.50 0.10
           52   370      95.64 0.212      15.24    0.200     70.00        0.193 0.50 0.10
           52   371      76.97 0.001     121.95    0.200     70.00        3.019 0.50 0.10
           52   372      52.61 0.001     121.95    0.200     73.00        3.014 0.50 0.10
           52   373      79.64 0.182      18.29    0.200     73.00        0.219 0.50 0.10
           52   374    1944.93 0.388       9.15    0.200     57.00        0.390 0.50 0.10
           52   375    1708.13 0.354       9.15    0.200     76.00        0.362 0.85 0.10
           52   376     793.21 0.295       9.15    0.200     76.00        0.245 0.85 0.10
           53   377      24.98 0.002     121.95    0.200     70.00        2.448 0.50 0.10
           53   378      56.17 0.159      24.39    0.200     70.00        0.270 0.50 0.10
           53   379      73.43 0.002     121.95    0.200     70.00        2.464 0.50 0.10
           53   380      98.83 0.133      24.39    0.200     70.00        0.297 0.50 0.10
           53   381    1261.66 0.350       9.15    0.200     57.00        0.418 0.50 0.10
           53   382     175.05 0.216      15.24    0.200     76.00        0.227 0.85 0.10
           53   383     229.07 0.189      18.29    0.200     76.00        0.269 0.85 0.10
           53   384      30.12 0.001     121.95    0.200     90.56        3.014 0.85 0.10
           53   385      45.02 0.193      18.29    0.200     90.56        0.215 0.85 0.10
           53   386      20.90 0.001     121.95    0.200     90.56        3.011 0.85 0.10
           53   387      25.83 0.185      18.29    0.200     90.56        0.211 0.85 0.10
           54   388      22.47 0.193      18.29    0.200     73.00        0.227 0.50 0.10
           54   389      12.18 0.002     121.95    0.200     73.00        2.455 0.50 0.10
           54   390     151.85 0.321       9.15    0.200     57.00        0.267 0.50 0.10
           54   391     102.67 0.309       9.15    0.200     76.00        0.224 0.85 0.10
           54   392      79.24 0.270       9.15    0.200     82.00        0.206 0.85 0.10
           54   393      56.62 0.001     121.95    0.200     94.90        3.067 0.85 0.10
           54   394      45.59 0.154      24.39    0.200     94.90        0.306 0.85 0.10
           55   395     110.09 0.227      15.24    0.200     73.00        0.202 0.50 0.10
           55   396      44.13 0.335       9.15    0.200     73.00        0.126 0.50 0.10
           55   397    1459.65 0.404       9.15    0.200     63.00        0.422 0.50 0.10
           55   398     376.35 0.332       9.15    0.200     82.00        0.208 0.85 0.10
           55   399     353.66 0.298       9.15    0.200     76.00        0.207 0.85 0.10
           55   400     185.14 0.331       9.15    0.200     82.00        0.163 0.85 0.10
           55   401      36.62 0.207      15.24    0.200     94.90        0.187 0.85 0.10
           55   402      26.81 0.001     121.95    0.200     90.56        3.012 0.85 0.10
           55   403      40.26 0.225      15.24    0.200     90.56        0.183 0.85 0.10
           55   404      21.76 0.001     121.95    0.200     94.90        3.010 0.85 0.10
           55   405      29.52 0.138      24.39    0.200     94.90        0.271 0.85 0.10
           56   406      18.06 0.241      15.24    0.200     73.00        0.176 0.50 0.10
           56   407       4.78 0.003     121.95    0.200     73.00        2.162 0.50 0.10
           56   408      16.79 0.195      18.29    0.200     70.00        0.207 0.50 0.10
           56   409       6.25 0.003     121.95    0.200     70.00        2.163 0.50 0.10
           56   410      27.82 0.001     121.95    0.200     73.00        3.016 0.50 0.10
           56   411      10.74 0.115      60.98    0.200     73.00        0.483 0.50 0.10
           56   412     240.45 0.347       9.15    0.200     63.00        0.201 0.50 0.10
           56   413     241.06 0.353       9.15    0.200     57.00        0.200 0.50 0.10
           56   414     259.65 0.332       9.15    0.200     82.00        0.208 0.85 0.10
           56   415     287.95 0.261       9.15    0.200     76.00        0.226 0.85 0.10
           57   416     136.30 0.001     121.95    0.200     74.00        3.032 0.50 0.10
           57   417     140.40 0.211      15.24    0.200     74.00        0.204 0.50 0.10
           57   418     134.69 0.001     121.95    0.200     63.00        3.031 0.50 0.10
           57   419     120.36 0.161      18.29    0.200     63.00        0.236 0.50 0.10
           57   420     150.20 0.099      60.98    0.200     74.00        0.531 0.50 0.10
           57   421     233.06 0.001     121.95    0.200     74.00        3.049 0.50 0.10
           57   422     371.22 0.256       9.15    0.200     74.00        0.192 0.50 0.10
           57   423     236.74 0.254       9.15    0.200     63.00        0.169 0.50 0.10
           57   424    4502.98 0.342       9.15    0.200     64.00        0.744 0.50 0.10
           57   425    1592.44 0.339       9.15    0.200     45.00        0.366 0.50 0.10
           57   426     416.07 0.281       9.15    0.200     83.00        0.196 0.50 0.10
           57   427     829.89 0.240      15.24    0.200     66.00        0.311 0.50 0.10
           57   428     212.50 0.156      24.39    0.200     95.52        0.295 0.50 0.10
           57   429     197.34 0.001     121.95    0.200     95.52        3.043 0.50 0.10
           57   430     432.58 0.001     121.95    0.200     95.52        3.084 0.50 0.10
           57   431     422.52 0.172      18.29    0.200     95.52        0.285 0.50 0.10
           58   432     518.97 0.418       9.15    0.200     58.00        0.270 0.50 0.10
           58   433     182.36 0.247      15.24    0.200     45.00        0.232 0.50 0.10
           58   434      89.46 0.378       9.15    0.200     77.00        0.143 0.50 0.10
           58   435      23.86 0.174      18.29    0.200     95.52        0.216 0.50 0.10
           58   436      32.82 0.146      24.39    0.200     83.12        0.271 0.50 0.10
           58   437      18.35 0.003     121.95    0.200     83.12        2.168 0.50 0.10
           59   438    1700.43 0.426       9.15    0.200     63.00        0.434 0.50 0.10
           59   439     768.18 0.420       9.15    0.200     57.00        0.269 0.50 0.10
           59   440     640.39 0.310       9.15    0.200     82.00        0.254 0.85 0.10
           59   441     643.96 0.281       9.15    0.200     76.00        0.258 0.85 0.10
           60   442     398.95 0.453       9.15    0.200     63.00        0.235 0.50 0.10
           60   443    1422.92 0.501       9.15    0.200     57.00        0.506 0.50 0.10
           60   444     124.01 0.329       9.15    0.200     82.00        0.160 0.85 0.10
           60   445     142.31 0.301       9.15    0.200     76.00        0.169 0.85 0.10
           60   446     261.49 0.265       9.15    0.200     76.00        0.212 0.85 0.10
           61   447     104.06 0.233      15.24    0.200     62.00        0.202 0.50 0.10
           61   448      33.59 0.002     121.95    0.200     62.00        2.451 0.50 0.10
           61   449     129.61 0.200      15.24    0.200     73.00        0.217 0.50 0.10
           61   450      81.93 0.001     121.95    0.200     73.00        3.030 0.50 0.10
           61   451    2114.04 0.422       9.15    0.200     44.00        0.577 0.50 0.10
           61   452     356.94 0.335       9.15    0.200     76.00        0.211 0.85 0.10
           61   453     303.51 0.347       9.15    0.200     65.00        0.196 0.85 0.10
           61   454     229.67 0.311       9.15    0.200     76.00        0.181 0.85 0.10
           62   455     174.66 0.263       9.15    0.200     73.00        0.158 0.50 0.10
           62   456     146.30 0.295       9.15    0.200     70.00        0.148 0.50 0.10
           62   457    1063.53 0.367       9.15    0.200     63.00        0.296 0.50 0.10
           62   458     887.85 0.353       9.15    0.200     57.00        0.269 0.50 0.10
           62   459     470.72 0.293       9.15    0.200     82.00        0.207 0.85 0.10
           62   460    1014.87 0.280       9.15    0.200     76.00        0.297 0.85 0.10
           63   461     420.62 0.396       9.15    0.200     63.00        0.209 0.50 0.10
           63   462     228.26 0.380       9.15    0.200     44.00        0.168 0.50 0.10
           63   463     226.80 0.362       9.15    0.200     57.00        0.169 0.50 0.10
           63   464     270.42 0.319       9.15    0.200     82.00        0.183 0.85 0.10
           63   465     193.02 0.325       9.15    0.200     76.00        0.164 0.85 0.10
           63   466      22.40 0.139      24.39    0.200     94.90        0.268 0.85 0.10
           63   467      18.74 0.001     121.95    0.200     94.90        3.009 0.85 0.10
           63   468      15.07 0.002     121.95    0.200     90.56        2.444 0.85 0.10
           63   469      50.92 0.199      18.29    0.200     90.56        0.213 0.85 0.10
           64   470      14.49 0.121      24.39    0.200     63.00        0.283 0.50 0.10
           64   471      27.43 0.001     121.95    0.200     63.00        3.022 0.50 0.10
           64   472      16.98 0.116      60.98    0.200     71.00        0.489 0.50 0.10
           64   473      11.76 0.001     121.95    0.200     71.00        3.012 0.50 0.10
           64   474      19.71 0.137      24.39    0.200     74.00        0.276 0.50 0.10
           64   475       5.58 0.002     121.95    0.200     74.00        2.443 0.50 0.10
           64   476      10.48 0.001     121.95    0.200     63.00        3.011 0.50 0.10
           64   477       4.41 0.121      24.39    0.200     63.00        0.275 0.50 0.10
           64   478       9.79 0.001     121.95    0.200     71.00        3.010 0.50 0.10
           64   479       8.03 0.155      24.39    0.200     71.00        0.259 0.50 0.10
           64   480      20.76 0.182      18.29    0.200     74.00        0.218 0.50 0.10
           64   481     379.52 0.288       9.15    0.200     45.00        0.319 0.50 0.10
           64   482     163.91 0.296       9.15    0.200     58.00        0.213 0.50 0.10
           64   483      28.03 0.351       9.15    0.200     66.00        0.130 0.50 0.10
           64   484      25.92 0.112      60.98    0.200     83.00        0.500 0.50 0.10
           64   485      40.72 0.153      24.39    0.200     83.12        0.282 0.50 0.10
           64   486      36.05 0.001     121.95    0.200     83.12        3.028 0.50 0.10
           64   487      14.30 0.002     121.95    0.200     91.18        2.450 0.50 0.10
           64   488      49.92 0.161      18.29    0.200     91.18        0.244 0.50 0.10
           65   489     102.97 0.002     121.95    0.200     73.00        2.465 0.50 0.10
           65   490     304.40 0.205      15.24    0.200     73.00        0.243 0.50 0.10
           65   491     249.62 0.279       9.15    0.200     70.00        0.175 0.50 0.10
           65   492     120.72 0.098      60.98    0.200     73.00        0.531 0.50 0.10
           65   493      78.45 0.001     121.95    0.200     73.00        3.023 0.50 0.10
           65   494    1970.03 0.366       9.15    0.200     63.00        0.458 0.50 0.10
           65   495    1095.55 0.305       9.15    0.200     82.00        0.324 0.85 0.10
           65   496     405.12 0.297       9.15    0.200     76.00        0.203 0.85 0.10
           65   497      32.13 0.001     121.95    0.200     94.90        3.012 0.85 0.10
           65   498      93.30 0.252       9.15    0.200     94.90        0.145 0.85 0.10
           65   499     135.55 0.296       9.15    0.200     90.56        0.149 0.85 0.10
           65   500      55.92 0.062      60.98    0.200     94.90        0.590 0.85 0.10
           65   501      51.34 0.001     121.95    0.200     94.90        3.016 0.85 0.10
           66   502     157.23 0.000     121.95    0.200     71.00        6.079 0.50 0.10
           66   503     148.90 0.000     121.95    0.200     74.00        6.074 0.50 0.10
           66   504     174.30 0.294       9.15    0.200     45.00        0.213 0.50 0.10
           66   505      66.13 0.001     121.95    0.200     58.00        3.044 0.50 0.10
           66   506     198.00 0.245      15.24    0.200     58.00        0.274 0.50 0.10
           66   507     232.63 0.000     121.95    0.200     91.18        6.115 0.50 0.10
           66   508     233.88 0.000     121.95    0.200     95.52        6.116 0.50 0.10
           67   509     722.62 0.111      60.98    0.200     74.00        0.593 0.50 0.10
           67   510    1050.17 0.001     121.95    0.200     74.00        3.156 0.50 0.10
           67   511     443.43 0.169      18.29    0.200     74.00        0.279 0.50 0.10
           67   512     225.48 0.001     121.95    0.200     74.00        3.042 0.50 0.10
           67   513    4519.92 0.357       9.15    0.200     64.00        0.661 0.50 0.10
           67   514    1933.49 0.372       9.15    0.200     58.00        0.370 0.50 0.10
           67   515     848.57 0.360       9.15    0.200     83.00        0.236 0.50 0.10
           67   516     658.24 0.244      15.24    0.200     83.00        0.268 0.50 0.10
           67   517     196.48 0.001     121.95    0.200     91.18        3.038 0.50 0.10
           67   518     127.43 0.076      60.98    0.200     91.18        0.565 0.50 0.10
           67   519     434.20 0.001     121.95    0.200     95.52        3.073 0.50 0.10
           67   520     379.77 0.093      60.98    0.200     95.52        0.572 0.50 0.10
           68   521     179.08 0.002     121.95    0.200     71.00        2.474 0.50 0.10
           68   522     396.42 0.146      24.39    0.200     71.00        0.329 0.50 0.10
           68   523     434.68 0.001     121.95    0.200     74.00        3.080 0.50 0.10
           68   524     349.40 0.128      24.39    0.200     74.00        0.331 0.50 0.10
           68   525     376.36 0.251       9.15    0.200     71.00        0.190 0.50 0.10
           68   526     206.57 0.163      18.29    0.200     74.00        0.249 0.50 0.10
           68   527      97.51 0.001     121.95    0.200     74.00        3.023 0.50 0.10
           68   528    7704.39 0.326       9.15    0.200     45.00        1.081 0.50 0.10
           68   529     914.00 0.312       9.15    0.200     66.00        0.263 0.50 0.10
           68   530     331.79 0.161      18.29    0.200     91.18        0.271 0.50 0.10
           68   531     164.28 0.001     121.95    0.200     91.18        3.035 0.50 0.10
           68   532     368.19 0.001     121.95    0.200     95.52        3.070 0.50 0.10
           68   533     441.47 0.122      24.39    0.200     95.52        0.350 0.50 0.10
           69   534     149.98 0.224      15.24    0.200     73.00        0.206 0.50 0.10
           69   535      56.94 0.001     121.95    0.200     73.00        3.018 0.50 0.10
           69   536    2362.32 0.415       9.15    0.200     63.00        0.509 0.50 0.10
           69   537     456.01 0.275       9.15    0.200     82.00        0.214 0.85 0.10
           69   538     171.88 0.299       9.15    0.200     76.00        0.156 0.85 0.10
           70   539     270.54 0.250      15.24    0.200     73.00        0.232 0.50 0.10
           70   540     112.49 0.001     121.95    0.200     70.00        3.033 0.50 0.10
           70   541     220.91 0.221      15.24    0.200     70.00        0.228 0.50 0.10
           70   542    2682.98 0.383       9.15    0.200     63.00        0.612 0.50 0.10
           70   543    1340.77 0.407       9.15    0.200     44.00        0.380 0.50 0.10
           70   544    1228.13 0.379       9.15    0.200     57.00        0.362 0.50 0.10
           70   545    2658.48 0.295       9.15    0.200     82.00        0.617 0.85 0.10
           70   546    1590.54 0.286       9.15    0.200     76.00        0.436 0.85 0.10
           70   547     222.70 0.225      15.24    0.200     94.90        0.227 0.85 0.10
           70   548     189.37 0.281       9.15    0.200     82.50        0.167 0.85 0.10
           70   549     285.74 0.264       9.15    0.200     90.56        0.190 0.85 0.10
           70   550      72.54 0.001     121.95    0.200     90.56        3.023 0.85 0.10
           71   551    1520.22 0.506       9.15    0.200     63.00        0.320 0.50 0.10
           71   552    1420.93 0.418       9.15    0.200     44.00        0.313 0.50 0.10
           71   553    1667.76 0.437       9.15    0.200     57.00        0.343 0.50 0.10
           71   554     382.90 0.316       9.15    0.200     65.00        0.179 0.50 0.10
           71   555     385.72 0.315       9.15    0.200     76.00        0.180 0.50 0.10
           71   556     504.28 0.314       9.15    0.200     76.00        0.197 0.50 0.10
           71   557     280.95 0.381       9.15    0.200     94.90        0.157 0.50 0.10
           71   558     156.35 0.327       9.15    0.200     90.56        0.142 0.50 0.10
           72   559     243.81 0.000     121.95    0.200     71.00        6.062 0.50 0.10
           72   560      76.25 0.128      24.39    0.200     71.00        0.293 0.50 0.10
           72   561     142.78 0.001     121.95    0.200     71.00        3.047 0.50 0.10
           72   562     501.97 0.000     121.95    0.200     74.00        6.126 0.50 0.10
           72   563     253.19 0.000     121.95    0.200     74.00        6.065 0.50 0.10
           72   564     741.34 0.317       9.15    0.200     58.00        0.305 0.50 0.10
           72   565    1107.33 0.354       9.15    0.200     64.00        0.382 0.50 0.10
           72   566     102.05 0.000     121.95    0.200     83.00        6.024 0.50 0.10
           72   567     160.01 0.299       9.15    0.200     83.00        0.165 0.50 0.10
           72   568     183.68 0.001     121.95    0.200     91.18        3.059 0.50 0.10
           72   569     104.37 0.130      24.39    0.200     91.18        0.300 0.50 0.10
           72   570     456.14 0.000     121.95    0.200     95.52        6.115 0.50 0.10
           72   571      28.43 0.168      18.29    0.200     64.00        0.218 0.50 0.10
           72   572      34.45 0.001     121.95    0.200     64.00        3.015 0.50 0.10
           72   573      20.82 0.147      24.39    0.200     64.00        0.264 0.50 0.10
           72   574      69.64 0.001     121.95    0.200     64.00        3.026 0.50 0.10
           72   575      15.85 0.124      24.39    0.200     70.00        0.276 0.50 0.10
           72   576      60.98 0.000     121.95    0.200     70.00        6.011 0.50 0.10
           73   577     202.19 0.000     121.95    0.200     71.00        6.038 0.50 0.10
           73   578     117.34 0.138      24.39    0.200     71.00        0.291 0.50 0.10
           73   579     203.71 0.001     121.95    0.200     71.00        3.051 0.50 0.10
           73   580      86.25 0.091      60.98    0.200     71.00        0.535 0.50 0.10
           73   581     190.15 0.113      60.98    0.200     74.00        0.526 0.50 0.10
           73   582     194.12 0.001     121.95    0.200     74.00        3.049 0.50 0.10
           73   583    1720.89 0.344       9.15    0.200     58.00        0.426 0.50 0.10
           73   584     989.10 0.313       9.15    0.200     64.00        0.308 0.50 0.10
           73   585     210.13 0.250      15.24    0.200     66.00        0.215 0.50 0.10
           73   586     489.08 0.282       9.15    0.200     77.00        0.222 0.50 0.10
           73   587      44.33 0.128      24.39    0.200     83.12        0.279 0.50 0.10
           73   588      72.11 0.001     121.95    0.200     83.12        3.022 0.50 0.10
           73   589      75.60 0.001     121.95    0.200     91.18        3.022 0.50 0.10
           73   590      53.62 0.141      24.39    0.200     91.18        0.274 0.50 0.10
           73   591      52.95 0.104      60.98    0.200     91.18        0.507 0.50 0.10
           73   592      73.27 0.001     121.95    0.200     91.18        3.022 0.50 0.10
           73   593     122.93 0.114      60.98    0.200     95.52        0.510 0.50 0.10
           73   594      70.85 0.001     121.95    0.200     95.52        3.021 0.50 0.10
           74   595      50.23 0.001     121.95    0.200     63.00        3.014 0.50 0.10
           74   596     131.25 0.155      24.39    0.200     63.00        0.279 0.50 0.10
           74   597      72.55 0.001     121.95    0.200     74.00        3.018 0.50 0.10
           74   598      90.85 0.098      60.98    0.200     74.00        0.520 0.50 0.10
           74   599    1482.66 0.355       9.15    0.200     45.00        0.333 0.50 0.10
           74   600     880.02 0.329       9.15    0.200     58.00        0.254 0.50 0.10
           74   601     440.05 0.296       9.15    0.200     66.00        0.193 0.50 0.10
           74   602     455.25 0.293       9.15    0.200     77.00        0.195 0.50 0.10
           74   603      60.11 0.189      18.29    0.200     83.12        0.213 0.50 0.10
           74   604      30.58 0.001     121.95    0.200     83.12        3.009 0.50 0.10
           74   605      72.19 0.191      18.29    0.200     91.18        0.215 0.50 0.10
           74   606      22.72 0.002     121.95    0.200     91.18        2.444 0.50 0.10
           74   607      54.36 0.161      18.29    0.200     95.52        0.222 0.50 0.10
           74   608      28.18 0.001     121.95    0.200     95.52        3.009 0.50 0.10
           75   609     450.54 0.215      15.24    0.200     70.00        0.255 0.50 0.10
           75   610     177.95 0.001     121.95    0.200     70.00        3.039 0.50 0.10
           75   611    1977.51 0.344       9.15    0.200     44.00        0.413 0.50 0.10
           75   612     502.27 0.327       9.15    0.200     65.00        0.203 0.85 0.10
           75   613     389.64 0.276       9.15    0.200     76.00        0.191 0.85 0.10
           75   614      69.04 0.001     121.95    0.200     90.56        3.018 0.85 0.10
           75   615      54.97 0.146      24.39    0.200     90.56        0.269 0.85 0.10
           75   616      61.28 0.179      18.29    0.200     94.90        0.217 0.85 0.10
           75   617      46.42 0.001     121.95    0.200     94.90        3.013 0.85 0.10
           76   618      45.32 0.143      24.39    0.200     94.90        0.396 0.85 0.10
           76   619      13.29 0.001     121.95    0.200     92.00        3.049 0.50 0.10
           77   620      40.65 0.001     121.95    0.200     71.00        3.015 0.50 0.10
           77   621      38.97 0.090      60.98    0.200     71.00        0.526 0.50 0.10
           77   622      56.18 0.001     121.95    0.200     71.00        3.020 0.50 0.10
           77   623      32.14 0.064      60.98    0.200     71.00        0.580 0.50 0.10
           77   624      64.98 0.085      60.98    0.200     74.00        0.542 0.50 0.10
           77   625      95.24 0.001     121.95    0.200     74.00        3.030 0.50 0.10
           77   626     127.17 0.000     121.95    0.200     74.00        6.026 0.50 0.10
           77   627     106.82 0.277       9.15    0.200     45.00        0.148 0.50 0.10
           77   628     212.51 0.259       9.15    0.200     58.00        0.176 0.50 0.10
           77   629     138.34 0.332       9.15    0.200     58.00        0.150 0.50 0.10
           77   630     101.30 0.294       9.15    0.200     66.00        0.145 0.50 0.10
           77   631      98.28 0.001     121.95    0.200     77.00        3.031 0.50 0.10
           77   632     114.96 0.112      60.98    0.200     77.00        0.514 0.50 0.10
           77   633      62.01 0.001     121.95    0.200     83.00        3.021 0.50 0.10
           77   634      33.80 0.152      24.39    0.200     83.00        0.265 0.50 0.10
           77   635      41.32 0.046      91.46    0.200     91.18        0.814 0.50 0.10
           77   636     155.19 0.000     121.95    0.200     91.18        6.033 0.50 0.10
           77   637     436.45 0.001     121.95    0.200     95.52        3.108 0.50 0.10
           78   638     217.24 0.278       9.15    0.200     71.00        0.163 0.50 0.10
           78   639     291.28 0.157      24.39    0.200     74.00        0.310 0.50 0.10
           78   640    1105.94 0.350       9.15    0.200     45.00        0.300 0.50 0.10
           78   641    1089.30 0.409       9.15    0.200     45.00        0.293 0.50 0.10
           78   642     446.77 0.244      15.24    0.200     66.00        0.252 0.50 0.10
           78   643     269.43 0.287       9.15    0.200     83.00        0.172 0.50 0.10
           78   644      72.00 0.001     121.95    0.200     83.12        3.019 0.50 0.10
           78   645     228.19 0.111      60.98    0.200     83.12        0.530 0.50 0.10
           78   646     220.31 0.002     121.95    0.200     95.52        2.485 0.50 0.10
           78   647     412.56 0.127      24.39    0.200     95.52        0.348 0.50 0.10
           79   648     182.50 0.000     121.95    0.200     63.00        6.039 0.50 0.10
           79   649      56.00 0.086      60.98    0.200     63.00        0.538 0.50 0.10
           79   650     111.57 0.059      60.98    0.200     71.00        0.615 0.50 0.10
           79   651      55.89 0.002     121.95    0.200     71.00        2.456 0.50 0.10
           79   652      67.53 0.066      60.98    0.200     74.00        0.584 0.50 0.10
           79   653     165.81 0.000     121.95    0.200     74.00        6.035 0.50 0.10
           79   654     470.23 0.325       9.15    0.200     58.00        0.225 0.50 0.10
           79   655    1104.56 0.345       9.15    0.200     45.00        0.348 0.50 0.10
           79   656     218.87 0.179      18.29    0.200     66.00        0.261 0.50 0.10
           79   657     215.24 0.001     121.95    0.200     66.00        3.059 0.50 0.10
           79   658     487.20 0.272       9.15    0.200     66.00        0.235 0.50 0.10
           79   659     237.62 0.001     121.95    0.200     83.00        3.064 0.50 0.10
           79   660     226.73 0.097      60.98    0.200     83.00        0.562 0.50 0.10
           79   661      81.50 0.000     121.95    0.200     83.12        6.014 0.50 0.10
           79   662      37.67 0.149      24.39    0.200     83.12        0.267 0.50 0.10
           79   663      86.40 0.081      60.98    0.200     95.52        0.556 0.50 0.10
           79   664      93.54 0.001     121.95    0.200     95.52        3.029 0.50 0.10
           80   665     122.93 0.001     121.95    0.200     62.00        3.024 0.50 0.10
           80   666     336.73 0.202      15.24    0.200     62.00        0.229 0.50 0.10
           80   667     156.54 0.001     121.95    0.200     70.00        3.029 0.50 0.10
           80   668     543.68 0.210      15.24    0.200     70.00        0.255 0.50 0.10
           80   669     327.55 0.000     121.95    0.200     73.00        6.042 0.50 0.10
           80   670     133.76 0.174      18.29    0.200     73.00        0.229 0.50 0.10
           80   671    4406.85 0.362       9.15    0.200     44.00        0.618 0.50 0.10
           80   672     823.31 0.290       9.15    0.200     65.00        0.233 0.85 0.10
           80   673    1010.55 0.285       9.15    0.200     76.00        0.257 0.85 0.10
           80   674     208.79 0.001     121.95    0.200     82.50        3.037 0.85 0.10
           80   675     349.33 0.169      18.29    0.200     82.50        0.262 0.85 0.10
           80   676     191.83 0.196      18.29    0.200     90.56        0.230 0.85 0.10
           80   677     155.18 0.001     121.95    0.200     90.56        3.029 0.85 0.10
           80   678     300.16 0.001     121.95    0.200     94.90        3.051 0.85 0.10
           80   679     238.88 0.147      24.39    0.200     94.90        0.296 0.85 0.10
           80   680    1089.43 0.307       9.15    0.200     50.00        0.264 0.50 0.10
           81   681     156.38 0.186      18.29    0.200     63.00        0.229 0.50 0.10
           81   682      68.52 0.001     121.95    0.200     63.00        3.016 0.50 0.10
           81   683     114.10 0.001     121.95    0.200     71.00        3.023 0.50 0.10
           81   684     174.01 0.175      18.29    0.200     71.00        0.235 0.50 0.10
           81   685     202.67 0.269       9.15    0.200     63.00        0.154 0.50 0.10
           81   686     336.75 0.257       9.15    0.200     71.00        0.175 0.50 0.10
           81   687    2509.75 0.348       9.15    0.200     45.00        0.431 0.50 0.10
           81   688     989.66 0.342       9.15    0.200     58.00        0.253 0.50 0.10
           81   689     500.82 0.316       9.15    0.200     66.00        0.191 0.50 0.10
           81   690     431.16 0.273       9.15    0.200     77.00        0.187 0.50 0.10
           81   691     362.16 0.214      15.24    0.200     83.12        0.231 0.50 0.10
           81   692     274.48 0.197      18.29    0.200     91.18        0.243 0.50 0.10
           81   693     169.13 0.001     121.95    0.200     91.18        3.032 0.50 0.10
           82   694     257.46 0.316       9.15    0.200     62.00        0.162 0.50 0.10
           82   695     311.40 0.107      60.98    0.200     73.00        0.546 0.50 0.10
           82   696     398.76 0.001     121.95    0.200     73.00        3.075 0.50 0.10
           82   697    2549.10 0.386       9.15    0.200     44.00        0.474 0.50 0.10
           82   698    1319.11 0.315       9.15    0.200     65.00        0.320 0.85 0.10
           82   699     897.12 0.267       9.15    0.200     76.00        0.266 0.85 0.10
           82   700    1183.39 0.261       9.15    0.200     82.00        0.307 0.85 0.10
           82   701     149.37 0.201      15.24    0.200     90.56        0.206 0.85 0.10
           82   702     261.06 0.001     121.95    0.200     94.90        3.052 0.85 0.10
           82   703     165.93 0.107      60.98    0.200     94.90        0.521 0.85 0.10
           83   704    7323.49 0.467       9.15    0.200     63.00        0.902 0.50 0.10
           83   705    2678.98 0.330       9.15    0.200     82.00        0.444 0.85 0.10
           83   706    3253.50 0.308       9.15    0.200     76.00        0.508 0.85 0.10
           84   707      15.18 0.000     121.95    0.200     73.00        6.012 0.50 0.10
           84   708       8.67 0.068      60.98    0.200     73.00        0.572 0.50 0.10
           84   709      12.92 0.244      15.24    0.200     76.00        0.185 0.85 0.10
           84   710      33.76 0.185      18.29    0.200     82.00        0.245 0.85 0.10
           84   711      12.07 0.001     121.95    0.200     82.00        3.020 0.85 0.10
           84   712      15.84 0.001     121.95    0.200     94.90        3.025 0.85 0.10
           84   713      14.80 0.083      60.98    0.200     94.90        0.548 0.85 0.10
           85   714     699.49 0.361       9.15    0.200     57.00        0.261 0.50 0.10
           85   715    1036.76 0.454       9.15    0.200     57.00        0.316 0.50 0.10
           85   716     491.78 0.476       9.15    0.200     57.00        0.212 0.50 0.10
           85   717     605.55 0.368       9.15    0.200     76.00        0.242 0.85 0.10
           85   718     739.65 0.374       9.15    0.200     76.00        0.267 0.85 0.10
           86   719     932.33 0.388       9.15    0.200     57.00        0.293 0.50 0.10
           86   720     691.28 0.456       9.15    0.200     57.00        0.245 0.50 0.10
           86   721     841.25 0.360       9.15    0.200     76.00        0.280 0.85 0.10
           86   722    1218.97 0.377       9.15    0.200     76.00        0.344 0.85 0.10
           86   723     218.11 0.414       9.15    0.200     58.00        0.157 0.50 0.10
           87   724     243.62 0.111      60.98    0.200     63.00        0.534 0.50 0.10
           87   725     211.50 0.003     121.95    0.200     63.00        2.205 0.50 0.10
           87   726     382.55 0.106      60.98    0.200     74.00        0.566 0.50 0.10
           87   727     677.52 0.001     121.95    0.200     74.00        3.129 0.50 0.10
           87   728      50.71 0.180      18.29    0.200     71.00        0.216 0.50 0.10
           87   729     114.46 0.000     121.95    0.200     71.00        6.016 0.50 0.10
           87   730      93.29 0.122      24.39    0.200     74.00        0.293 0.50 0.10
           87   731     330.33 0.000     121.95    0.200     74.00        6.057 0.50 0.10
           87   732    2888.15 0.332       9.15    0.200     64.00        0.562 0.50 0.10
           87   733    1833.78 0.221      15.24    0.200     83.00        0.474 0.50 0.10
           87   734     531.08 0.003     121.95    0.200     83.00        2.262 0.50 0.10
           87   735     265.22 0.002     121.95    0.200     83.12        2.494 0.50 0.10
           87   736     236.93 0.092      60.98    0.200     83.12        0.561 0.50 0.10
           87   737     693.45 0.001     121.95    0.200     95.52        3.131 0.50 0.10
           87   738     629.65 0.106      60.98    0.200     95.52        0.608 0.50 0.10
           88   739      35.58 0.150      24.39    0.200     63.00        0.281 0.50 0.10
           88   740      25.74 0.001     121.95    0.200     63.00        3.022 0.50 0.10
           88   741      66.18 0.165      18.29    0.200     74.00        0.255 0.50 0.10
           88   742      76.68 0.001     121.95    0.200     74.00        3.055 0.50 0.10
           88   743       5.99 0.199      18.29    0.200     74.00        0.202 0.50 0.10
           88   744      23.46 0.000     121.95    0.200     74.00        6.009 0.50 0.10
           88   745      61.86 0.391       9.15    0.200     45.00        0.150 0.50 0.10
           88   746      74.49 0.351       9.15    0.200     45.00        0.161 0.50 0.10
           88   747      15.22 0.204      15.24    0.200     77.00        0.188 0.50 0.10
           88   748      10.90 0.249      15.24    0.200     66.00        0.174 0.50 0.10
           88   749      18.95 0.187      18.29    0.200     83.00        0.216 0.50 0.10
           88   750      29.44 0.151      24.39    0.200     95.52        0.277 0.50 0.10
           88   751      55.08 0.001     121.95    0.200     95.52        3.042 0.50 0.10
           89   752      76.68 0.132      24.39    0.200     63.00        0.285 0.50 0.10
           89   753     171.76 0.001     121.95    0.200     63.00        3.045 0.50 0.10
           89   754      71.68 0.201      15.24    0.200     74.00        0.196 0.50 0.10
           89   755      87.13 0.001     121.95    0.200     74.00        3.026 0.50 0.10
           89   756      35.67 0.001     121.95    0.200     71.00        3.013 0.50 0.10
           89   757     109.17 0.214      15.24    0.200     71.00        0.201 0.50 0.10
           89   758     548.32 0.153      24.39    0.200     63.00        0.371 0.50 0.10
           89   759     337.89 0.001     121.95    0.200     63.00        3.079 0.50 0.10
           89   760     882.62 0.360       9.15    0.200     45.00        0.288 0.50 0.10
           89   761    1169.33 0.322       9.15    0.200     64.00        0.342 0.50 0.10
           89   762     839.11 0.329       9.15    0.200     58.00        0.283 0.50 0.10
           89   763     372.65 0.258       9.15    0.200     66.00        0.204 0.50 0.10
           89   764     336.33 0.296       9.15    0.200     83.00        0.192 0.50 0.10
           89   765     407.21 0.266       9.15    0.200     77.00        0.210 0.50 0.10
           89   766     546.04 0.145      24.39    0.200     83.12        0.375 0.50 0.10
           89   767     564.94 0.001     121.95    0.200     83.12        3.123 0.50 0.10
           89   768     392.24 0.000     121.95    0.200     95.52        6.078 0.50 0.10
           89   769     147.77 0.124      24.39    0.200     95.52        0.307 0.50 0.10
           90   770     328.06 0.000     121.95    0.200     63.00        6.064 0.50 0.10
           90   771     198.14 0.001     121.95    0.200     71.00        3.050 0.50 0.10
           90   772     136.60 0.138      24.39    0.200     71.00        0.295 0.50 0.10
           90   773     236.41 0.001     121.95    0.200     74.00        3.058 0.50 0.10
           90   774     159.49 0.155      24.39    0.200     74.00        0.291 0.50 0.10
           90   775     234.04 0.168      18.29    0.200     63.00        0.262 0.50 0.10
           90   776     171.67 0.001     121.95    0.200     63.00        3.044 0.50 0.10
           90   777     188.31 0.146      24.39    0.200     74.00        0.302 0.50 0.10
           90   778     100.99 0.002     121.95    0.200     74.00        2.465 0.50 0.10
           90   779     572.07 0.314       9.15    0.200     45.00        0.235 0.50 0.10
           90   780    1772.29 0.337       9.15    0.200     64.00        0.437 0.50 0.10
           90   781     591.02 0.264       9.15    0.200     83.00        0.244 0.50 0.10
           90   782     329.94 0.001     121.95    0.200     83.12        3.077 0.50 0.10
           90   783     169.83 0.124      24.39    0.200     83.12        0.311 0.50 0.10
           90   784     246.04 0.001     121.95    0.200     91.18        3.060 0.50 0.10
           90   785     202.57 0.116      60.98    0.200     91.18        0.525 0.50 0.10
           90   786     271.53 0.001     121.95    0.200     95.52        3.065 0.50 0.10
           90   787     269.79 0.114      60.98    0.200     95.52        0.541 0.50 0.10
           91   788      29.52 0.001     121.95    0.200     71.00        3.028 0.50 0.10
           91   789      37.90 0.088      60.98    0.200     71.00        0.549 0.50 0.10
           91   790      93.45 0.000     121.95    0.200     74.00        6.060 0.50 0.10
           91   791      30.82 0.117      60.98    0.200     74.00        0.501 0.50 0.10
           91   792      44.24 0.000     121.95    0.200     71.00        6.026 0.50 0.10
           91   793      34.79 0.174      18.29    0.200     71.00        0.234 0.50 0.10
           91   794      50.23 0.113      60.98    0.200     74.00        0.521 0.50 0.10
           91   795      36.52 0.002     121.95    0.200     74.00        2.469 0.50 0.10
           91   796      97.41 0.347       9.15    0.200     45.00        0.183 0.50 0.10
           91   797      75.04 0.363       9.15    0.200     58.00        0.167 0.50 0.10
           91   798      71.17 0.287       9.15    0.200     64.00        0.172 0.50 0.10
           91   799      35.06 0.078      60.98    0.200     83.12        0.566 0.50 0.10
           91   800      73.07 0.001     121.95    0.200     83.12        3.059 0.50 0.10
           91   801     106.16 0.001     121.95    0.200     91.18        3.081 0.50 0.10
           91   802      94.54 0.104      60.98    0.200     91.18        0.563 0.50 0.10
           91   803     200.11 0.000     121.95    0.200     95.52        6.127 0.50 0.10
[...]
           93   820     192.07        31.000         0.045     30.000   0.200        5.000  0.300    0.000     0.000
           93   821      11.71        31.000         0.045     30.000   0.200        5.000  0.300    0.000     0.000
           93   822       5.62        31.000         0.045     30.000   0.200        5.000  0.300    0.000     0.000
           93   823      65.42        31.000         0.045     30.000   0.200        5.000  0.300    0.000     0.000
           93   824      28.28        31.000         0.045     30.000   0.200        5.000  0.300    0.000     0.000
           93   825      35.04        31.000         0.045     30.000   0.200        5.000  0.300    0.000     0.000
           93   826      41.23        31.000         0.045     30.000   0.200        5.000  0.300    0.000     0.000
           93   827      12.47        31.000         0.045     30.000   0.200        5.000  0.300    0.000     0.000
           93   828      49.80        31.000         0.045     30.000   0.200        5.000  0.300    0.000     0.000
           94   829      73.01        31.000         0.045     30.000   0.200        5.000  0.300    0.000     0.000
           94   830      33.62        31.000         0.045     30.000   0.200        5.000  0.300    0.000     0.000
           94   831      67.12        31.000         0.045     30.000   0.200        5.000  0.300    0.000     0.000
           94   832     190.81        31.000         0.045     30.000   0.200        5.000  0.300    0.000     0.000
           94   833     709.16        31.000         0.045     30.000   0.200        5.000  0.300    0.000     0.000
           94   834     979.13        31.000         0.045     30.000   0.200        5.000  0.300    0.000     0.000
           94   835     218.36        31.000         0.045     30.000   0.200        5.000  0.300    0.000     0.000
           94   836     396.40        31.000         0.045     30.000   0.200        5.000  0.300    0.000     0.000
           94   837     347.51        31.000         0.045     30.000   0.200        5.000  0.300    0.000     0.000
           94   838     203.66        31.000         0.045     30.000   0.200        5.000  0.300    0.000     0.000
           94   839     431.96        31.000         0.045     30.000   0.200        5.000  0.300    0.000     0.000
           95   840     268.14        31.000         0.045     30.000   0.200        5.000  0.300    0.000     0.000
           95   841     237.19        31.000         0.045     30.000   0.200        5.000  0.300    0.000     0.000
           95   842     875.60        31.000         0.045     30.000   0.200        5.000  0.300    0.000     0.000
           95   843     757.92        31.000         0.045     30.000   0.200        5.000  0.300    0.000     0.000
           95   844     421.81        31.000         0.045     30.000   0.200        5.000  0.300    0.000     0.000
           95   845     445.58        31.000         0.045     30.000   0.200        5.000  0.300    0.000     0.000
           95   846     101.99        31.000         0.045     30.000   0.200        5.000  0.300    0.000     0.000
           95   847     309.07        31.000         0.045     30.000   0.200        5.000  0.300    0.000     0.000
           95   848     319.21        31.000         0.045     30.000   0.200        5.000  0.300    0.000     0.000
           95   849     314.31        31.000         0.045     30.000   0.200        5.000  0.300    0.000     0.000
           96   850     851.65        31.000         0.045     30.000   0.200        5.000  0.300    0.000     0.000
           96   851     278.52        31.000         0.045     30.000   0.200        5.000  0.300    0.000     0.000
           96   852     854.14        31.000         0.045     30.000   0.200        5.000  0.300    0.000     0.000
           96   853    1292.54        31.000         0.045     30.000   0.200        5.000  0.300    0.000     0.000
           96   854   10589.63        31.000         0.045     30.000   0.200        5.000  0.300    0.000     0.000
           96   855     511.71        31.000         0.045     30.000   0.200        5.000  0.300    0.000     0.000
           96   856     915.64        31.000         0.045     30.000   0.200        5.000  0.300    0.000     0.000
           96   857     808.18        31.000         0.045     30.000   0.200        5.000  0.300    0.000     0.000
           96   858    1046.57        31.000         0.045     30.000   0.200        5.000  0.300    0.000     0.000
           97   859     148.50        31.000         0.045     30.000   0.200        5.000  0.300    0.000     0.000
           97   860      39.41        31.000         0.045     30.000   0.200        5.000  0.300    0.000     0.000
           97   861      51.68        31.000         0.045     30.000   0.200        5.000  0.300    0.000     0.000
           97   862     154.00        31.000         0.045     30.000   0.200        5.000  0.300    0.000     0.000
           97   863     173.41        31.000         0.045     30.000   0.200        5.000  0.300    0.000     0.000
           97   864     215.27        31.000         0.045     30.000   0.200        5.000  0.300    0.000     0.000
           97   865    3529.34        31.000         0.045     30.000   0.200        5.000  0.300    0.000     0.000
           97   866     821.11        31.000         0.045     30.000   0.200        5.000  0.300    0.000     0.000
           98   867     135.86        31.000         0.045     30.000   0.200        5.000  0.300    0.000     0.000
           98   868     482.47        31.000         0.045     30.000   0.200        5.000  0.300    0.000     0.000
           98   869     467.11        31.000         0.045     30.000   0.200        5.000  0.300    0.000     0.000
           98   870     370.82        31.000         0.045     30.000   0.200        5.000  0.300    0.000     0.000
           98   871    4409.24        31.000         0.045     30.000   0.200        5.000  0.300    0.000     0.000
           98   872    5302.91        31.000         0.045     30.000   0.200        5.000  0.300    0.000     0.000
           98   873     869.00        31.000         0.045     30.000   0.200        5.000  0.300    0.000     0.000
           98   874     928.32        31.000         0.045     30.000   0.200        5.000  0.300    0.000     0.000
           98   875    1085.14        31.000         0.045     30.000   0.200        5.000  0.300    0.000     0.000
           98   876     221.12        31.000         0.045     30.000   0.200        5.000  0.300    0.000     0.000
           98   877     145.55        31.000         0.045     30.000   0.200        5.000  0.300    0.000     0.000
           98   878     414.28        31.000         0.045     30.000   0.200        5.000  0.300    0.000     0.000
           98   879     239.81        31.000         0.045     30.000   0.200        5.000  0.300    0.000     0.000
           99   880    3587.58        31.000         0.045     30.000   0.200        5.000  0.300    0.000     0.000
           99   881    2886.63        31.000         0.045     30.000   0.200        5.000  0.300    0.000     0.000
           99   882     932.51        31.000         0.045     30.000   0.200        5.000  0.300    0.000     0.000
           99   883    1076.73        31.000         0.045     30.000   0.200        5.000  0.300    0.000     0.000
           99   884     912.42        31.000         0.045     30.000   0.200        5.000  0.300    0.000     0.000
           99   885     419.21        31.000         0.045     30.000   0.200        5.000  0.300    0.000     0.000
           99   886     311.05        31.000         0.045     30.000   0.200        5.000  0.300    0.000     0.000

         Tributary/Main Channel Characteristics
              |--------------Tributary--------------------|---------------------Main----------------------------------|
          Sub  Length(km) Slope Width(m) Cond(mm/hr)     N Length(km) Slope Width(m) Depth(m) Cond(mm/hr)     N  MSK_K
            1       12.15 0.044    10.12      0.5000 0.014       0.54 0.021    10.12     0.51      3.0000 0.025  0.427
            2       12.50 0.070    13.24      0.5000 0.014       1.27 0.016    13.24     0.61      3.0000 0.025  1.026
            3       21.06 0.040    17.40      0.5000 0.014       8.82 0.016    17.40     0.74      3.0000 0.025  6.175
            4       16.54 0.054    18.56      0.5000 0.014       7.97 0.020    18.56     0.77      3.0000 0.025  4.905
            5       16.38 0.048    11.28      0.5000 0.014       7.38 0.007    22.42     0.87      3.0000 0.025  7.136
            6       12.21 0.065    10.75      0.5000 0.014       7.80 0.008    30.60     1.07      3.0000 0.025  6.149
            7       18.94 0.041    16.73      0.5000 0.014      11.04 0.012    40.58     1.29      3.0000 0.025  6.206
            8       22.64 0.025    20.18      0.5000 0.014      12.55 0.019    20.18     0.81      3.0000 0.025  7.625
            9       10.81 0.063    11.13      0.5000 0.014       2.32 0.017    11.13     0.55      3.0000 0.025  1.927
           10       21.95 0.022    14.53      0.5000 0.014       9.02 0.009    14.53     0.65      0.0500 0.020  7.411
           11       25.11 0.029    24.07      0.5000 0.014      13.63 0.007    24.07     0.92      0.0500 0.020  9.806
           12       17.58 0.060    16.50      0.5000 0.014       6.50 0.028    16.50     0.71      0.0500 0.020  2.855
           13       16.66 0.054    13.27      0.5000 0.014       2.23 0.009    13.27     0.62      0.0500 0.020  1.902
           14       18.32 0.026    14.83      0.5000 0.014       4.87 0.012    14.83     0.66      0.0500 0.020  3.366
           15        7.88 0.082     7.52      0.5000 0.014       3.28 0.001    31.62     1.10      0.0500 0.020  5.661
           16       23.13 0.052    23.40      0.5000 0.014      12.05 0.007    23.40     0.90      3.0000 0.025 10.897
           17       13.91 0.061    11.09      0.5000 0.014       0.73 0.018    11.09     0.55      0.0500 0.020  0.479
           18       11.31 0.058    10.22      0.5000 0.014       5.93 0.003    26.09     0.96      0.0500 0.020  6.074
           19       15.34 0.055    10.98      0.5000 0.014       3.79 0.016    10.98     0.54      3.0000 0.025  3.306
           20       18.12 0.032    18.34      0.5000 0.014       8.36 0.007    18.34     0.76      0.0500 0.020  6.879
           21       12.82 0.061    10.52      0.5000 0.014       9.26 0.004    50.02     1.49      3.0000 0.025  7.828
           22        8.06 0.077     5.12      0.5000 0.014       4.04 0.005    62.19     1.72      3.0000 0.025  2.892
           23        3.71 0.102     2.76      0.5000 0.014       1.82 0.001    58.49     1.65      3.0000 0.025  2.987
           24        3.55 0.096     2.80      0.5000 0.014       2.90 0.014    23.79     0.91      3.0000 0.025  1.912
           25        1.79 0.045     1.09      0.5000 0.014       1.22 0.001    64.28     1.76      3.0000 0.025  1.919
           26       20.56 0.040    14.90      0.5000 0.014      14.09 0.009    38.82     1.26      3.0000 0.025  9.498
           27       16.38 0.043    13.49      0.5000 0.014      11.71 0.005    40.73     1.30      0.0500 0.020  8.066
           28       19.70 0.044    18.51      0.5000 0.014       8.36 0.012    18.51     0.77      0.0500 0.020  5.345
           29       11.65 0.060    13.11      0.5000 0.014       3.26 0.031    13.11     0.61      3.0000 0.025  1.881
           30        9.59 0.053     7.87      0.5000 0.014       5.48 0.004    80.72     2.05      3.0000 0.025  4.068
           31       27.28 0.031    22.55      0.5000 0.014      20.24 0.006    39.83     1.28      0.0500 0.020 12.930
           32       13.33 0.054    11.03      0.5000 0.014       2.51 0.024    11.03     0.54      3.0000 0.025  1.778
           33       19.73 0.053    19.10      0.5000 0.014       6.61 0.027    19.10     0.78      3.0000 0.025  3.425
           34       17.40 0.045    18.56      0.5000 0.014      11.40 0.002    51.90     1.53      0.0500 0.020 11.914
           35        8.99 0.102     5.85      0.5000 0.014       5.27 0.004    47.85     1.45      0.0500 0.020  3.738
           36       15.11 0.057    13.82      0.5000 0.014       5.66 0.018    13.82     0.63      3.0000 0.025  4.151
           37       18.35 0.029    17.13      0.5000 0.014       7.54 0.011    17.13     0.73      0.0500 0.020  5.259
           38       14.87 0.045    13.24      0.5000 0.014       5.42 0.022    13.24     0.61      0.0500 0.020  2.937
           39        8.59 0.063     6.50      0.5000 0.014       5.49 0.007    19.38     0.79      0.0500 0.020  4.364
           40       15.47 0.034    12.90      0.5000 0.014       6.21 0.013    12.90     0.60      0.0500 0.020  4.458
           41        9.39 0.051     9.97      0.5000 0.014       0.06 0.001     9.97     0.51      0.0500 0.020  0.185
           42       12.19 0.066    12.69      0.5000 0.014       4.20 0.014    12.69     0.60      3.0000 0.025  3.607
           43       14.86 0.059    11.76      0.5000 0.014       4.15 0.019    11.76     0.57      3.0000 0.025  3.183
           44       16.73 0.044    15.75      0.5000 0.014      13.57 0.007    86.12     2.14      3.0000 0.025  6.890
           45       12.86 0.072    10.86      0.5000 0.014       1.87 0.011    10.86     0.54      3.0000 0.025  1.996
           46       19.69 0.052    16.81      0.5000 0.014      15.67 0.003    79.28     2.03      0.0500 0.020 11.224
           47       11.43 0.070    12.15      0.5000 0.014       2.59 0.008    12.15     0.58      0.0500 0.020  2.469
           48       17.81 0.051    17.22      0.5000 0.014       6.77 0.001    17.22     0.73      0.0500 0.020 13.449
           49       20.87 0.055    15.43      0.5000 0.014      10.60 0.002    90.62     2.21      3.0000 0.025 10.388
           50        5.43 0.075     6.07      0.5000 0.014       4.28 0.001    82.00     2.07      0.0500 0.020  4.821
           51       15.62 0.051    15.42      0.5000 0.014       5.43 0.018    15.42     0.68      3.0000 0.025  3.764
           52       12.59 0.043    13.31      0.5000 0.014       3.26 0.008    13.31     0.62      3.0000 0.025  3.627
           53        8.67 0.048     7.86      0.5000 0.014       5.37 0.011    20.76     0.83      3.0000 0.025  4.189
           54        5.42 0.031     3.26      0.5000 0.014       2.60 0.008   109.10     2.51      3.0000 0.025  1.160
           55       11.54 0.065     9.26      0.5000 0.014       9.67 0.006    21.84     0.86      3.0000 0.025  9.876
           56        6.36 0.058     5.46      0.5000 0.014       0.94 0.001   113.96     2.58      3.0000 0.025  1.138
           57       24.30 0.030    20.54      0.5000 0.014      17.10 0.004    35.46     1.18      0.0500 0.020 14.963
           58        5.60 0.096     4.70      0.5000 0.014       3.42 0.006    82.41     2.08      0.0500 0.020  1.589
           59       14.19 0.059    11.32      0.5000 0.014       4.25 0.037    11.32     0.55      3.0000 0.025  2.383
           60       11.56 0.045     8.55      0.5000 0.014       8.04 0.032    29.90     1.06      3.0000 0.025  3.126
           61       12.98 0.040    10.58      0.5000 0.014       2.80 0.016    10.58     0.53      3.0000 0.025  2.476
           62       11.34 0.049    11.33      0.5000 0.014       2.07 0.001    11.33     0.55      3.0000 0.025  7.080
           63        6.60 0.082     6.39      0.5000 0.014       4.49 0.001   116.32     2.61      3.0000 0.025  5.415
           64        6.43 0.037     4.77      0.5000 0.014       3.27 0.001    94.40     2.27      0.0500 0.020  3.463
           65       15.31 0.048    12.95      0.5000 0.014       5.94 0.007    12.95     0.61      3.0000 0.025  7.374
           66        9.69 0.056     5.74      0.5000 0.014       5.88 0.001   100.08     2.37      0.0500 0.020  6.062
           67       24.93 0.033    22.21      0.5000 0.014      17.99 0.002    35.83     1.19      0.0500 0.020 19.697
           68       24.42 0.022    22.70      0.5000 0.014      12.20 0.003    22.70     0.88      0.0500 0.020 13.475
           69       11.59 0.066    10.28      0.5000 0.014       6.45 0.009    36.07     1.20      3.0000 0.025  4.363
           70       31.48 0.027    21.44      0.5000 0.014      23.77 0.007    48.97     1.47      3.0000 0.025 16.166
           71       17.88 0.061    15.48      0.5000 0.014       5.44 0.014    15.48     0.68      3.0000 0.025  4.260
           72       13.95 0.024    12.29      0.5000 0.014       6.40 0.001   112.26     2.55      0.0500 0.020  6.268
           73       14.46 0.034    13.40      0.5000 0.014       1.13 0.001    13.40     0.62      0.0500 0.020  2.866
           74       12.00 0.071    11.53      0.5000 0.014       2.25 0.009    11.53     0.56      0.0500 0.020  2.045
           75       11.09 0.056    11.28      0.5000 0.014       9.82 0.004   119.17     2.66      3.0000 0.025  5.797
           76        1.69 0.029     0.93      0.5000 0.014       1.15 0.000   139.89     2.96      3.0000 0.025  1.864
           77        6.48 0.036     7.66      0.5000 0.014       4.17 0.005   114.95     2.59      0.0500 0.020  1.846
           78       14.00 0.061    12.38      0.5000 0.014       5.41 0.000   141.36     2.98      0.0500 0.020 15.109
           79       13.27 0.039    11.58      0.5000 0.014       1.67 0.001    11.58     0.56      0.0500 0.020  4.515
           80       21.87 0.036    20.86      0.5000 0.014      11.70 0.005    58.55     1.65      3.0000 0.025  8.459
           81       15.79 0.053    15.43      0.5000 0.014      10.78 0.001   144.75     3.02      0.0500 0.020  9.426
           82       18.56 0.037    17.14      0.5000 0.014      10.57 0.008    38.08     1.24      3.0000 0.025  7.622
           83       26.93 0.032    24.14      0.5000 0.014      16.20 0.015    24.14     0.92      3.0000 0.025 10.147
           84        2.01 0.083     1.39      0.5000 0.014       0.85 0.001    28.30     1.02      3.0000 0.025  1.924
           85       14.35 0.069    10.99      0.5000 0.014       1.52 0.013    10.99     0.54      3.0000 0.025  1.450
           86       15.15 0.071    11.59      0.5000 0.014       3.84 0.032    11.59     0.56      3.0000 0.025  2.305
           87       19.09 0.018    19.37      0.5000 0.014      12.93 0.001   119.93     2.67      0.0500 0.020 12.290
           88        3.87 0.030     3.56      0.5000 0.014       1.25 0.001   214.85     3.93      0.0500 0.020  0.913
           89       21.47 0.035    16.70      0.5000 0.014      13.12 0.002   152.66     3.13      0.0500 0.020  9.083
           90       15.88 0.024    15.27      0.5000 0.014       6.36 0.003    15.27     0.68      0.0500 0.020  8.589
           91        9.99 0.040     5.50      0.5000 0.014       2.10 0.001   154.98     3.16      0.0500 0.020  1.781
           92        8.94 0.012     4.43      0.5000 0.014       4.07 0.001   159.97     3.23      0.0500 0.020  3.404
           93        4.70 0.039     4.07      0.5000 0.014       2.83 0.001   161.35     3.25      0.0500 0.020  2.356
           94       12.05 0.018    11.42      0.5000 0.014       0.28 0.001    11.42     0.56      0.0500 0.020  0.752
           95       14.10 0.058    11.85      0.5000 0.014       8.48 0.002    30.25     1.07      3.0000 0.025 12.143
           96       25.49 0.037    28.17      0.5000 0.014      15.70 0.006    28.17     1.02      0.0500 0.020 11.302
           97       15.29 0.047    13.66      0.5000 0.014       4.55 0.020    13.66     0.63      3.0000 0.025  3.221
           98       31.34 0.029    26.16      0.5000 0.014      21.49 0.003    26.16     0.97      0.0500 0.020 24.158
           99       21.33 0.050    20.54      0.5000 0.014      11.87 0.017    20.54     0.82      3.0000 0.025  7.566
