1
    SWAT Aug 23 2011    VER 2009/Rev. 488                                           

    General Input/Output section (file.cio):                                        
    2013/12/18 0:00:00 ARCGIS-SWAT interface AV                                     
                                                                                    
Annual Summary for Watershed in year    1 of simulation

 UNIT                              PERCO   TILE                       WATER    SED    NO3    NO3    NO3    NO3        N       P       P
 TIME   PREC   SURQ   LATQ    GWQ   LATE      Q    SW     ET     PET  YIELD  YIELD   SURQ   LATQ   PERC   CROP  ORGANIC SOLUBLE ORGANIC
        (mm)   (mm)   (mm)   (mm)   (mm)   (mm)   (mm)   (mm)   (mm)   (mm) (t/ha)  -----------------(kg nutrient/ha)------------------
1
    SWAT Aug 23 2011    VER 2009/Rev. 488                                           

    General Input/Output section (file.cio):                                        
    2013/12/18 0:00:00 ARCGIS-SWAT interface AV                                     
                                                                                    
Annual Summary for Watershed in year    2 of simulation

 UNIT                              PERCO   TILE                       WATER    SED    NO3    NO3    NO3    NO3        N       P       P
 TIME   PREC   SURQ   LATQ    GWQ   LATE      Q    SW     ET     PET  YIELD  YIELD   SURQ   LATQ   PERC   CROP  ORGANIC SOLUBLE ORGANIC
        (mm)   (mm)   (mm)   (mm)   (mm)   (mm)   (mm)   (mm)   (mm)   (mm) (t/ha)  -----------------(kg nutrient/ha)------------------
    1   0.02   0.00   0.02   0.00   0.00   0.00 173.55   0.27   0.50   0.03   0.00   0.00   0.00 0.00 0.10     0.00    0.00    0.00
    2   0.00   0.00   0.02   0.00   0.00   0.00 173.24   0.32   0.58   0.03   0.00   0.00   0.00 0.00 0.12     0.00    0.00    0.00
    3   0.00   0.00   0.02   0.00   0.00   0.00 172.71   0.53   0.99   0.02   0.00   0.00   0.00 0.00 0.17     0.00    0.00    0.00
    4   0.02   0.00   0.02   0.00   0.00   0.00 172.43   0.29   0.53   0.02   0.00   0.00   0.00 0.00 0.09     0.00    0.00    0.00
    5   0.00   0.00   0.02   0.00   0.00   0.00 172.00   0.45   0.85   0.02   0.00   0.00   0.00 0.00 0.13     0.00    0.00    0.00
    6   0.00   0.00   0.02   0.00   0.00   0.00 171.44   0.55   1.11   0.02   0.00   0.00   0.00 0.00 0.17     0.00    0.00    0.00
    7   0.00   0.00   0.02   0.00   0.00   0.00 170.91   0.54   1.11   0.02   0.00   0.00   0.00 0.00 0.17     0.00    0.00    0.00
    8   0.00   0.00   0.02   0.00   0.00   0.00 170.45   0.46   0.97   0.02   0.00   0.00   0.00 0.00 0.15     0.00    0.00    0.00
    9   0.00   0.00   0.02   0.00   0.00   0.00 169.94   0.51   1.12   0.02   0.00   0.00   0.00 0.00 0.20     0.00    0.00    0.00
   10   0.00   0.00   0.02   0.00   0.00   0.00 169.59   0.36   0.79   0.02   0.00   0.00   0.00 0.00 0.16     0.00    0.00    0.00
   11   0.00   0.00   0.02   0.00   0.00   0.00 169.22   0.37   0.81   0.02   0.00   0.00   0.00 0.00 0.16     0.00    0.00    0.00
   12   0.00   0.00   0.01   0.00   0.00   0.00 168.67   0.55   1.22   0.02   0.00   0.00   0.00 0.00 0.21     0.00    0.00    0.00
   13   0.00   0.00   0.01   0.00   0.00   0.00 168.32   0.35   0.78   0.01   0.00   0.00   0.00 0.00 0.14     0.00    0.00    0.00
   14   0.00   0.00   0.01   0.00   0.00   0.00 167.85   0.47   1.11   0.01   0.00   0.00   0.00 0.00 0.18     0.00    0.00    0.00
   15   0.00   0.00   0.01   0.00   0.00   0.00 167.63   0.22   0.50   0.01   0.00   0.00   0.00 0.00 0.08     0.00    0.00    0.00
   16   0.00   0.00   0.01   0.00   0.00   0.00 167.21   0.42   0.96   0.01   0.00   0.00   0.00 0.00 0.12     0.00    0.00    0.00
   17   0.00   0.00   0.01   0.00   0.00   0.00 166.77   0.44   0.99   0.01   0.00   0.00   0.00 0.00 0.10     0.00    0.00    0.00
   18   0.00   0.00   0.01   0.00   0.00   0.00 166.30   0.47   1.04   0.01   0.00   0.00   0.00 0.00 0.09     0.00    0.00    0.00
   19   0.00   0.00   0.01   0.00   0.00   0.00 165.86   0.44   1.02   0.01   0.00   0.00   0.00 0.00 0.09     0.00    0.00    0.00
   20   0.00   0.00   0.01   0.00   0.00   0.00 165.43   0.43   0.97   0.01   0.00   0.00   0.00 0.00 0.09     0.00    0.00    0.00
   21   0.29   0.00   0.01   0.00   0.00   0.00 165.30   0.32   0.74   0.01   0.00   0.00   0.00 0.00 0.06     0.00    0.00    0.00
   22   1.69   0.00   0.02   0.00   0.00   0.00 166.47   0.28   0.35   0.03   0.00   0.00   0.00 0.00 0.03     0.00    0.00    0.00
   23   0.00   0.00   0.02   0.00   0.00   0.00 166.20   0.56   0.77   0.02   0.00   0.00   0.00 0.00 0.09     0.00    0.00    0.00
   24   0.00   0.00   0.01   0.00   0.00   0.00 165.75   0.45   0.90   0.01   0.00   0.00   0.00 0.00 0.11     0.00    0.00    0.00
   25   0.00   0.00   0.01   0.00   0.00   0.00 165.19   0.56   1.15   0.01   0.00   0.00   0.00 0.00 0.13     0.00    0.00    0.00
   26   7.05   0.04   0.15   0.00   0.00   0.00 170.45   1.06   1.19   0.18   0.00   0.01   0.01 0.00 0.13     0.00    0.00    0.00
   27   2.68   0.01   0.15   0.00   0.00   0.00 172.26   0.30   0.31   0.16   0.00   0.00   0.00 0.00 0.07     0.00    0.00    0.00
   28   0.01   0.01   0.11   0.00   0.00   0.00 171.88   0.68   0.78   0.11   0.00   0.00   0.00 0.00 0.12     0.00    0.00    0.00
   29   0.79   0.00   0.09   0.00   0.00   0.00 171.87   0.75   0.93   0.09   0.00   0.00   0.00 0.00 0.10     0.00    0.00    0.00
   30   0.00   0.00   0.07   0.00   0.00   0.00 171.09   0.80   1.21   0.07   0.00   0.00   0.00 0.00 0.13     0.00    0.00    0.00
   31   0.00   0.00   0.06   0.00   0.00   0.00 170.06   1.03   1.73   0.06   0.00   0.00   0.00 0.00 0.16     0.00    0.00    0.00
    1  12.56   0.08   1.03   0.02   0.00   0.00 170.06  15.24  28.01   1.11   0.00   0.01   0.03   0.00   3.85     0.00    0.00    0.00
   32   0.00   0.00   0.05   0.00   0.00   0.00 169.36   0.70   1.26   0.05   0.00   0.00   0.00 0.00 0.12     0.00    0.00    0.00
   33   0.00   0.00   0.04   0.00   0.00   0.00 168.69   0.66   1.20   0.04   0.00   0.00   0.00 0.00 0.09     0.00    0.00    0.00
   34   0.00   0.00   0.04   0.00   0.00   0.00 167.87   0.83   1.56   0.04   0.00   0.00   0.00 0.00 0.12     0.00    0.00    0.00
   35   0.00   0.00   0.03   0.00   0.00   0.00 166.91   0.96   1.82   0.03   0.00   0.00   0.00 0.00 0.14     0.00    0.00    0.00
   36   0.06   0.00   0.03   0.00   0.00   0.00 166.26   0.71   1.37   0.03   0.00   0.00   0.00 0.00 0.10     0.00    0.00    0.00
   37   0.00   0.00   0.03   0.00   0.00   0.00 165.66   0.60   1.20   0.03   0.00   0.00   0.00 0.00 0.10     0.00    0.00    0.00
   38   0.00   0.00   0.02   0.00   0.00   0.00 164.94   0.72   1.44   0.02   0.00   0.00   0.00 0.00 0.12     0.00    0.00    0.00
   39   0.00   0.00   0.02   0.00   0.00   0.00 164.14   0.81   1.67   0.02   0.00   0.00   0.00 0.00 0.13     0.00    0.00    0.00
   40   0.00   0.00   0.02   0.00   0.00   0.00 163.47   0.67   1.33   0.02   0.00   0.00   0.00 0.00 0.11     0.00    0.00    0.00
   41   0.00   0.00   0.02   0.00   0.00   0.00 163.02   0.45   0.95   0.02   0.00   0.00   0.00 0.00 0.09     0.00    0.00    0.00
   42   0.00   0.00   0.02   0.00   0.00   0.00 162.39   0.63   1.27   0.02   0.00   0.00   0.00 0.00 0.11     0.00    0.00    0.00
   43   0.00   0.00   0.02   0.00   0.00   0.00 161.77   0.63   1.35   0.02   0.00   0.00   0.00 0.00 0.12     0.00    0.00    0.00
   44   0.00   0.00   0.01   0.00   0.00   0.00 160.86   0.91   1.98   0.01   0.00   0.00   0.00 0.00 0.16     0.00    0.00    0.00
   45   2.15   0.01   0.06   0.00   0.00   0.00 161.95   0.80   1.22   0.07   0.00   0.00   0.00 0.00 0.10     0.00    0.00    0.00
   46   0.19   0.00   0.04   0.00   0.00   0.00 161.14   1.08   1.73   0.04   0.00   0.00   0.00 0.00 0.16     0.00    0.00    0.00
   47   0.11   0.00   0.03   0.00   0.00   0.00 160.61   0.62   1.13   0.03   0.00   0.00   0.00 0.00 0.12     0.00    0.00    0.00
   48   0.00   0.00   0.02   0.00   0.00   0.00 160.12   0.51   1.02   0.02   0.00   0.00   0.00 0.00 0.12     0.00    0.00    0.00
   49   3.46   0.01   0.05   0.00   0.00   0.00 162.37   0.55   0.57   0.06   0.00   0.00   0.00 0.00 0.07     0.00    0.00    0.00
   50   1.15   0.01   0.05   0.00   0.00   0.00 162.81   0.89   0.94   0.06   0.00   0.00   0.00 0.00 0.11     0.00    0.00    0.00
   51   0.02   0.00   0.04   0.00   0.00   0.00 162.31   0.78   1.01   0.04   0.00   0.00   0.00 0.00 0.11     0.00    0.00    0.00
   52   0.09   0.00   0.03   0.00   0.00   0.00 161.82   0.53   0.82   0.03   0.00   0.00   0.00 0.00 0.09     0.00    0.00    0.00
   53   0.19   0.00   0.03   0.00   0.00   0.00 161.42   0.54   0.84   0.03   0.00   0.00   0.00 0.00 0.09     0.00    0.00    0.00
   54   0.00   0.00   0.02   0.00   0.00   0.00 160.55   0.97   1.57   0.02   0.00   0.00   0.00 0.00 0.14     0.00    0.00    0.00
   55   0.00   0.00   0.02   0.00   0.00   0.00 159.37   1.18   2.08   0.02   0.00   0.00   0.00 0.00 0.17     0.00    0.00    0.00
   56   0.20   0.00   0.02   0.00   0.00   0.00 158.59   0.99   1.75   0.02   0.00   0.00   0.00 0.00 0.15     0.00    0.00    0.00
   57   0.15   0.00   0.01   0.00   0.00   0.00 157.93   0.79   1.50   0.02   0.00   0.00   0.00 0.00 0.15     0.00    0.00    0.00
   58   0.32   0.00   0.01   0.00   0.00   0.00 157.75   0.28   0.53   0.01   0.00   0.00   0.00 0.00 0.07     0.00    0.00    0.00
   59   1.21   0.00   0.01   0.00   0.00   0.00 158.07   0.53   0.60   0.01   0.00   0.00   0.00 0.00 0.07     0.00    0.00    0.00
    2   9.30   0.06   0.77   0.00   0.00   0.00 158.07  20.30  35.73   0.81   0.00   0.01   0.03   0.00   3.21     0.00    0.00    0.00
   60   0.16   0.00   0.01   0.00   0.00   0.00 157.74   0.93   1.20   0.01   0.00   0.00   0.00 0.00 0.13     0.00    0.00    0.00
   61   0.70   0.00   0.01   0.00   0.00   0.00 157.67   0.58   0.89   0.01   0.00   0.00   0.00 0.00 0.09     0.00    0.00    0.00
   62   4.69   0.02   0.06   0.00   0.00   0.00 161.03   0.77   0.96   0.07   0.00   0.00   0.00 0.00 0.08     0.00    0.00    0.00
   63   0.24   0.00   0.05   0.00   0.00   0.00 160.11   1.62   1.93   0.05   0.00   0.00   0.00 0.00 0.14     0.00    0.00    0.00
   64  26.61   0.47   0.82   0.00   0.00   0.00 180.36   1.22   1.22   1.28   0.01   0.00   0.03 0.01 0.08     0.01    0.00    0.00
   65  16.22   0.35   1.21   0.00   0.02   0.00 191.68   1.00   1.01   1.56   0.01   0.00   0.07 0.07 0.18     0.00    0.00    0.00
   66   3.59   0.13   0.97   0.00   0.06   0.00 193.47   1.31   1.32   1.09   0.00   0.00   0.06 0.01 0.16     0.00    0.00    0.00
   67  18.91   0.46   1.51   0.00   0.57   0.00 205.41   0.39   0.40   1.95   0.01   0.00   0.08 0.08 0.05     0.00    0.00    0.00
   68   0.01   0.14   1.13   0.00   0.15   0.00 204.62   1.63   1.69   1.27   0.00   0.00   0.06 0.01 0.16     0.00    0.00    0.00
   69   0.51   0.08   0.88   0.00   0.05   0.00 204.23   0.64   0.71   0.96   0.00   0.00   0.05 0.00 0.05     0.00    0.00    0.00
   70   1.21   0.06   0.72   0.00   0.02   0.00 204.22   1.14   1.12   0.77   0.00   0.00   0.04 0.00 0.06     0.00    0.00    0.00
   71   0.00   0.05   0.59   0.00   0.01   0.00 202.76   1.72   1.91   0.64   0.00   0.00   0.04 0.00 0.08     0.00    0.00    0.00
   72  15.73   0.31   1.20   0.00   0.89   0.00 211.71   1.14   1.14   1.50   0.00   0.00   0.06 0.08 0.06     0.00    0.00    0.00
   73   0.00   0.10   0.92   0.00   0.28   0.00 209.98   1.95   2.19   1.02   0.00   0.00   0.05 0.02 0.18     0.00    0.00    0.00
   74   0.00   0.06   0.73   0.00   0.10   0.00 208.69   1.17   1.42   0.79   0.00   0.00   0.04 0.00 0.07     0.00    0.00    0.00
   75   0.01   0.05   0.60   0.00   0.04   0.00 206.69   1.96   2.41   0.65   0.00   0.00   0.03 0.00 0.09     0.00    0.00    0.00
   76   0.00   0.04   0.50   0.00   0.01   0.00 204.09   2.58   3.16   0.54   0.00   0.00   0.03 0.00 0.10     0.00    0.00    0.00
   77   0.00   0.03   0.43   0.00   0.00   0.00 203.22   0.86   1.07   0.46   0.00   0.00   0.03 0.00 0.08     0.00    0.00    0.00
   78   0.00   0.03   0.37   0.00   0.00   0.00 201.79   1.44   1.79   0.39   0.00   0.00   0.02 0.00 0.12     0.00    0.00    0.00
   79   0.02   0.02   0.32   0.00   0.00   0.00 200.50   1.29   1.64   0.34   0.00   0.00   0.02 0.00 0.12     0.00    0.00    0.00
   80   0.02   0.02   0.28   0.00   0.00   0.00 199.18   1.35   1.73   0.30   0.00   0.00   0.02 0.00 0.14     0.00    0.00    0.00
   81   2.83   0.03   0.27   0.00   0.00   0.00 200.18   1.34   1.44   0.30   0.00   0.00   0.02 0.00 0.12     0.00    0.00    0.00
   82  10.59   0.15   0.47   0.00   0.21   0.00 207.33   1.52   1.52   0.61   0.00   0.00   0.02 0.01 0.16     0.00    0.00    0.00
   83   0.02   0.05   0.37   0.00   0.06   0.00 206.28   1.54   1.58   0.42   0.00   0.00   0.02 0.00 0.22     0.00    0.00    0.00
   84   0.00   0.03   0.31   0.00   0.02   0.00 204.18   2.08   2.52   0.33   0.00   0.00   0.02 0.00 0.12     0.00    0.00    0.00
   85   0.32   0.02   0.26   0.00   0.01   0.00 203.14   1.30   1.52   0.28   0.00   0.00   0.01 0.00 0.22     0.00    0.00    0.00
   86   1.69   0.02   0.23   0.00   0.00   0.00 203.40   0.89   0.87   0.24   0.00   0.00   0.01 0.00 0.12     0.00    0.00    0.00
   87  23.05   1.18   1.15   0.00   1.85   0.00 216.12   0.68   0.67   2.30   0.01   0.00   0.04 0.16 0.12     0.01    0.00    0.00
   88   0.67   0.27   0.89   0.00   0.65   0.00 215.20   1.32   1.32   1.15   0.00   0.00   0.03 0.06 0.29     0.00    0.00    0.00
   89   0.56   0.10   0.72   0.00   0.31   0.00 214.63   0.58   0.60   0.81   0.00   0.00   0.03 0.03 0.10     0.00    0.00    0.00
   90   0.00   0.06   0.59   0.00   0.12   0.00 213.34   1.87   2.00   0.64   0.00   0.00   0.02 0.01 0.18     0.00    0.00    0.00
    3 128.36   4.34  18.57   0.00   5.45   0.00 213.34  39.81  44.97  22.75   0.06   0.02   0.96   0.55   3.83     0.03    0.00    0.00
   91   0.00   0.04   0.49   0.00   0.05   0.00 211.27   2.08   2.47   0.53   0.00   0.00   0.02 0.00 0.31     0.00    0.00    0.00
   92   0.00   0.03   0.42   0.00   0.02   0.00 209.83   1.41   1.76   0.45   0.00   0.00   0.02 0.00 0.34     0.00    0.00    0.00
   93   0.21   0.02   0.36   0.00   0.01   0.00 207.96   2.06   2.39   0.38   0.00   0.00   0.02 0.00 0.21     0.00    0.00    0.00
   94   0.32   0.02   0.31   0.00   0.00   0.00 206.25   2.01   2.33   0.33   0.00   0.00   0.02 0.00 0.36     0.00    0.00    0.00
   95  11.30   0.20   0.53   0.00   0.63   0.00 212.96   0.64   0.63   0.72   0.00   0.00   0.02 0.07 0.14     0.00    0.00    0.00
   96   0.44   0.05   0.44   0.00   0.22   0.00 212.29   1.74   1.73   0.49   0.00   0.00   0.02 0.03 0.40     0.00    0.00    0.00
   97   0.02   0.03   0.37   0.00   0.07   0.00 210.79   1.95   2.11   0.40   0.00   0.00   0.01 0.01 0.38     0.00    0.00    0.00
   98   0.00   0.02   0.32   0.00   0.03   0.00 209.08   1.68   2.05   0.34   0.00   0.00   0.01 0.00 0.43     0.00    0.00    0.00
   99   0.00   0.02   0.28   0.00   0.01   0.00 207.17   1.90   2.27   0.29   0.00   0.00   0.01 0.00 0.45     0.00    0.00    0.00
  100   0.01   0.01   0.24   0.00   0.00   0.00 205.81   1.36   1.66   0.26   0.00   0.00   0.01 0.00 0.35     0.00    0.00    0.00
  101   0.00   0.01   0.22   0.00   0.00   0.00 203.61   2.21   2.73   0.23   0.00   0.00   0.01 0.00 0.29     0.00    0.00    0.00
  102  12.23   0.25   0.48   0.00   0.75   0.00 210.61   1.12   1.12   0.72   0.00   0.01   0.01 0.04 0.11     0.00    0.00    0.00
  103   9.05   0.18   0.84   0.00   0.62   0.00 215.59   1.69   1.68   1.00   0.00   0.00   0.02 0.07 0.20     0.00    0.00    0.00
  104   1.40   0.07   0.67   0.00   0.33   0.00 214.72   2.04   2.13   0.73   0.00   0.00   0.02 0.03 0.17     0.00    0.00    0.00
  105   0.00   0.04   0.53   0.00   0.14   0.00 211.50   3.31   3.73   0.56   0.00   0.00   0.02 0.01 0.21     0.00    0.00    0.00
  106   6.37   0.18   0.64   0.00   0.46   0.00 214.09   1.57   1.49   0.81   0.00   0.02   0.02 0.04 0.27     0.00    0.00    0.00
  107   0.01   0.08   0.52   0.00   0.23   0.00 211.44   2.73   2.91   0.60   0.00   0.01   0.02 0.01 0.68     0.00    0.00    0.00
  108   4.31   0.06   0.46   0.00   0.15   0.00 213.02   1.04   1.02   0.51   0.00   0.01   0.01 0.00 0.33     0.00    0.00    0.00
  109  34.33   3.36   2.28   0.00   5.43   0.00 226.42   0.66   0.66   5.56   0.02   0.03   0.07 0.72 0.19     0.02    0.00    0.00
  110   0.02   0.86   1.68   0.00   1.98   0.00 223.30   2.18   2.18   2.54   0.00   0.01   0.05 0.29 0.66     0.00    0.00    0.00
  111   0.01   0.35   1.30   0.00   0.82   0.00 219.94   2.57   2.90   1.65   0.00   0.01   0.04 0.11 0.75     0.00    0.00    0.00
  112   0.62   0.19   1.04   0.00   0.34   0.00 218.81   0.82   0.96   1.23   0.00   0.00   0.03 0.04 0.40     0.00    0.00    0.00
  113   0.00   0.13   0.86   0.00   0.15   0.00 216.98   2.07   2.35   0.99   0.00   0.00   0.02 0.01 0.65     0.00    0.00    0.00
  114   7.12   0.16   0.89   0.00   0.74   0.00 219.98   0.30   0.32   1.03   0.00   0.00   0.02 0.08 0.13     0.00    0.00    0.00
  115  21.24   1.82   1.92   0.00   4.93   0.00 226.77   0.17   0.17   3.67   0.01   0.01   0.05 0.83 0.09     0.01    0.00    0.00
  116   0.00   0.45   1.55   0.00   1.70   0.00 224.29   2.03   1.97   2.00   0.00   0.00   0.04 0.34 0.74     0.00    0.00    0.00
  117   0.00   0.19   1.27   0.00   0.69   0.00 221.60   2.39   2.58   1.47   0.00   0.00   0.03 0.13 0.87     0.00    0.00    0.00
  118   0.00   0.11   1.06   0.01   0.29   0.00 220.16   1.06   1.27   1.18   0.00   0.00   0.03 0.05 0.43     0.00    0.00    0.00
  119   0.07   0.08   0.89   0.01   0.13   0.00 218.18   1.88   2.27   0.98   0.00   0.00   0.02 0.02 0.81     0.00    0.00    0.00
  120   0.00   0.06   0.76   0.01   0.05   0.00 215.23   2.89   3.53   0.83   0.00   0.00   0.02 0.01 1.14     0.00    0.00    0.00
    4 109.07   9.08  23.61   0.04  20.95   0.00 215.23  51.56  57.36  32.46   0.03   0.12   0.72   2.93  12.50     0.04    0.00    0.01
  121   0.00   0.05   0.65   0.01   0.02   0.00 212.84   2.36   2.95   0.71   0.00   0.00   0.02 0.00 0.98     0.00    0.00    0.00
  122   0.00   0.04   0.56   0.01   0.01   0.00 210.93   1.90   2.36   0.61   0.00   0.00   0.02 0.00 0.75     0.00    0.00    0.00
  123   0.40   0.04   0.48   0.01   0.00   0.00 209.35   1.90   2.23   0.53   0.00   0.00   0.02 0.00 0.76     0.00    0.00    0.00
  124   0.00   0.03   0.42   0.01   0.00   0.00 206.74   2.70   3.29   0.46   0.00   0.00   0.01 0.00 1.00     0.00    0.00    0.00
  125   0.20   0.03   0.38   0.01   0.01   0.00 205.21   1.65   2.12   0.42   0.00   0.00   0.01 0.00 0.49     0.00    0.00    0.00
  126   0.00   0.02   0.33   0.01   0.01   0.00 203.12   2.09   2.71   0.37   0.00   0.00   0.01 0.00 0.19     0.00    0.00    0.00
  127   0.07   0.02   0.30   0.01   0.02   0.00 201.48   1.67   2.22   0.33   0.00   0.00   0.01 0.00 0.07     0.00    0.00    0.00
  128   0.00   0.02   0.26   0.02   0.01   0.00 199.94   1.55   2.06   0.30   0.00   0.00   0.01 0.00 0.07     0.00    0.00    0.00
  129   0.10   0.02   0.24   0.02   0.03   0.00 197.83   2.15   2.89   0.28   0.00   0.00   0.01 0.00 0.09     0.00    0.00    0.00
  130   0.00   0.01   0.22   0.02   0.01   0.00 195.92   1.90   2.69   0.25   0.00   0.00   0.01 0.00 0.08     0.00    0.00    0.00
  131   0.00   0.01   0.20   0.01   0.01   0.00 193.78   2.13   2.95   0.22   0.00   0.00   0.01 0.00 0.08     0.00    0.00    0.00
  132   0.07   0.01   0.18   0.01   0.00   0.00 191.50   2.35   3.16   0.20   0.00   0.00   0.01 0.00 0.11     0.00    0.00    0.00
  133   0.04   0.01   0.16   0.01   0.00   0.00 188.97   2.57   3.53   0.18   0.00   0.00   0.01 0.00 0.38     0.00    0.00    0.00
  134   0.00   0.01   0.15   0.01   0.00   0.00 186.52   2.45   3.59   0.17   0.00   0.00   0.01 0.00 0.87     0.00    0.00    0.00
  135   0.00   0.01   0.14   0.01   0.00   0.00 184.00   2.53   3.66   0.16   0.00   0.00   0.01 0.00 1.10     0.00    0.00    0.00
  136   0.00   0.01   0.13   0.01   0.00   0.00 181.42   2.58   3.94   0.15   0.00   0.00   0.01 0.00 1.17     0.00    0.00    0.00
  137  33.08   1.06   0.98   0.01   0.53   0.00 204.60   2.39   2.31   2.02   0.00   0.02   0.01 0.04 0.67     0.00    0.00    0.00
  138  37.03   3.48   2.23   0.01   4.19   0.00 221.20   2.28   2.23   5.64   0.02   0.02   0.02 0.58 0.88     0.03    0.00    0.00
  139   0.94   0.88   1.77   0.01   1.53   0.00 217.69   3.07   2.99   2.65   0.00   0.01   0.02 0.24 1.16     0.00    0.00    0.00
  140   0.02   0.36   1.44   0.01   0.59   0.00 215.24   1.70   2.03   1.80   0.00   0.00   0.01 0.09 0.66     0.00    0.00    0.00
  141   0.00   0.19   1.19   0.01   0.25   0.00 212.42   2.49   2.91   1.38   0.00   0.00   0.01 0.03 0.72     0.00    0.00    0.00
  142   0.20   0.12   0.99   0.01   0.11   0.00 210.34   2.04   2.47   1.12   0.00   0.00   0.01 0.01 0.50     0.00    0.00    0.00
  143   0.36   0.08   0.84   0.01   0.05   0.00 209.16   1.25   1.53   0.93   0.00   0.00   0.01 0.00 0.17     0.00    0.00    0.00
  144   0.10   0.06   0.71   0.01   0.02   0.00 206.56   2.96   3.54   0.79   0.00   0.00   0.01 0.00 0.13     0.00    0.00    0.00
  145   0.16   0.05   0.61   0.01   0.01   0.00 204.22   2.52   3.13   0.67   0.00   0.00   0.01 0.00 0.09     0.00    0.00    0.00
  146  30.52   1.74   1.55   0.01   3.14   0.00 220.07   0.89   0.86   3.24   0.01   0.01   0.01 0.35 0.06     0.01    0.00    0.00
  147  10.36   0.94   1.90   0.02   2.95   0.00 222.41   1.47   1.42   2.80   0.00   0.00   0.02 0.60 0.14     0.00    0.00    0.00
  148   1.45   0.32   1.53   0.02   1.33   0.00 220.93   0.68   0.67   1.84   0.00   0.00   0.02 0.29 0.05     0.00    0.00    0.00
  149   0.00   0.16   1.24   0.02   0.52   0.00 219.43   2.31   2.38   1.42   0.00   0.00   0.02 0.10 0.07     0.00    0.00    0.00
  150   0.00   0.10   1.03   0.02   0.22   0.00 217.20   2.26   2.45   1.15   0.00   0.00   0.01 0.04 0.07     0.00    0.00    0.00
  151   0.00   0.07   0.87   0.02   0.08   0.00 214.81   2.28   2.69   0.97   0.00   0.00   0.01 0.01 0.10     0.00    0.00    0.00
    5 115.11   9.93  23.68   0.40  15.64   0.00 214.81  65.07  79.96  33.75   0.03   0.09   0.38   2.39  13.65     0.04    0.00    0.01
  152   0.00   0.05   0.74   0.03   0.03   0.00 211.52   3.25   3.87   0.82   0.00   0.00   0.01 0.00 0.12     0.00    0.00    0.00
  153   0.00   0.04   0.64   0.03   0.01   0.00 208.65   2.86   3.49   0.71   0.00   0.00   0.01 0.00 0.15     0.00    0.00    0.00
  154  11.58   0.26   0.80   0.03   0.38   0.00 214.94   2.99   2.82   1.08   0.00   0.00   0.01 0.02 0.11     0.00    0.00    0.00
  155  11.54   0.37   1.01   0.03   1.48   0.00 219.63   1.79   1.68   1.39   0.00   0.00   0.01 0.25 0.12     0.00    0.00    0.00
  156   0.02   0.12   0.83   0.03   0.47   0.00 217.11   3.07   3.09   0.98   0.00   0.00   0.01 0.09 0.08     0.00    0.00    0.00
  157   0.00   0.06   0.70   0.03   0.16   0.00 215.05   1.88   2.34   0.79   0.00   0.00   0.01 0.03 0.06     0.00    0.00    0.00
  158   0.00   0.04   0.60   0.04   0.06   0.00 211.96   3.01   3.86   0.68   0.00   0.00   0.01 0.01 0.04     0.00    0.00    0.00
  159   0.44   0.04   0.52   0.04   0.02   0.00 209.72   2.58   3.29   0.59   0.00   0.00   0.01 0.00 0.05     0.00    0.00    0.00
  160   0.63   0.03   0.46   0.04   0.01   0.00 207.28   3.10   3.80   0.52   0.00   0.00   0.01 0.00 0.07     0.00    0.00    0.00
  161   5.38   0.05   0.48   0.04   0.02   0.00 209.54   2.06   2.16   0.57   0.00   0.00   0.01 0.00 0.07     0.00    0.00    0.00
  162  19.34   1.12   1.06   0.04   2.19   0.00 218.71   2.46   2.39   2.20   0.00   0.00   0.01 0.36 0.08     0.01    0.00    0.00
  163  10.27   1.58   1.24   0.04   2.72   0.00 219.65   1.48   1.53   2.85   0.00   0.00   0.02 0.59 0.11     0.01    0.00    0.00
  164  25.74   4.34   2.89   0.05   5.19   0.00 225.49   0.78   0.78   7.24   0.01   0.01   0.05 1.06 0.04     0.02    0.00    0.00
  165  31.23   7.22   3.96   0.05   8.64   0.00 228.93   1.88   1.88  11.19   0.02   0.02   0.07 2.02 0.10     0.03    0.00    0.00
  166   9.89   2.66   3.54   0.05   5.08   0.00 227.33   1.64   1.66   6.22   0.00   0.01   0.07 1.34 0.13     0.01    0.00    0.00
  167   1.50   1.06   2.74   0.06   2.26   0.00 223.51   2.90   2.88   3.85   0.00   0.00   0.05 0.58 0.06     0.00    0.00    0.00
  168  17.42   3.18   3.16   0.06   4.39   0.00 225.25   1.91   2.07   6.37   0.01   0.01   0.06 1.01 0.05     0.02    0.00    0.00
  169   3.99   1.15   2.61   0.06   2.25   0.00 223.30   2.46   2.53   3.80   0.00   0.00   0.05 0.55 0.08     0.00    0.00    0.00
  170   0.01   0.51   2.08   0.07   0.86   0.00 218.61   4.20   4.89   2.66   0.00   0.00   0.04 0.20 0.08     0.00    0.00    0.00
  171   0.54   0.31   1.70   0.07   0.34   0.00 215.59   3.12   3.53   2.08   0.00   0.00   0.03 0.07 0.11     0.00    0.00    0.00
  172  42.90   7.73   3.71   0.07   6.23   0.00 228.09   2.29   2.26  11.48   0.01   0.02   0.05 1.18 0.13     0.01    0.00    0.00
  173   4.80   2.37   2.85   0.08   3.11   0.00 226.11   1.99   1.97   5.28   0.00   0.01   0.04 0.58 0.24     0.00    0.00    0.00
  174   5.31   1.29   2.39   0.08   2.37   0.00 225.25   1.62   1.63   3.74   0.00   0.00   0.03 0.36 0.13     0.00    0.00    0.00
  175  13.14   2.04   2.54   0.09   3.93   0.00 226.15   2.99   2.85   4.64   0.00   0.01   0.04 0.61 0.11     0.00    0.00    0.00
  176   1.94   0.71   2.14   0.09   1.64   0.00 223.27   2.62   2.84   2.93   0.00   0.00   0.03 0.27 0.14     0.00    0.00    0.00
  177   9.13   0.78   2.29   0.10   2.13   0.00 224.96   1.15   1.15   3.14   0.00   0.00   0.03 0.39 0.10     0.00    0.00    0.00
  178  13.63   1.18   2.70   0.10   4.23   0.00 227.30   1.69   1.69   3.95   0.00   0.00   0.04 0.72 0.07     0.00    0.00    0.00
  179   6.02   0.63   2.64   0.11   3.04   0.00 226.55   1.41   1.75   3.36   0.00   0.00   0.04 0.50 0.07     0.00    0.00    0.00
  180   0.68   0.27   2.18   0.12   1.29   0.00 222.95   3.14   4.05   2.56   0.00   0.00   0.03 0.21 0.06     0.00    0.00    0.00
  181   0.24   0.17   1.78   0.13   0.52   0.00 220.73   1.75   2.46   2.08   0.00   0.00   0.03 0.08 0.13     0.00    0.00    0.00
    6 247.32  41.35  56.98   1.85  65.03   0.00 220.73  70.08  77.20  99.75   0.08   0.11   0.90  13.09   2.90     0.13    0.01    0.02
  182   7.93   0.29   1.83   0.14   1.25   0.00 223.57   1.30   1.62   2.24   0.00   0.00   0.03 0.14 0.09     0.00    0.00    0.00
  183  18.70   2.14   2.45   0.15   4.46   0.00 227.74   1.75   2.15   4.72   0.00   0.01   0.03 0.63 0.06     0.01    0.00    0.00
  184  32.24   7.90   3.39   0.16   8.27   0.00 230.91   1.56   1.95  11.43   0.03   0.02   0.04 1.09 0.09     0.09    0.00    0.01
  185   6.45   3.48   3.18   0.17   4.15   0.00 227.13   1.96   2.47   6.82   0.01   0.01   0.04 0.50 0.09     0.02    0.00    0.00
  186   0.21   1.23   2.59   0.19   1.52   0.00 222.79   3.01   4.03   4.01   0.00   0.00   0.03 0.17 0.09     0.01    0.00    0.00
  187   0.82   0.61   2.16   0.20   0.71   0.00 219.51   3.05   4.24   2.98   0.00   0.00   0.03 0.07 0.13     0.00    0.00    0.00
  188   1.26   0.35   1.84   0.22   0.38   0.00 216.88   3.23   4.41   2.41   0.00   0.00   0.02 0.03 0.14     0.00    0.00    0.00
  189   1.17   0.23   1.59   0.23   0.22   0.00 213.97   3.65   5.21   2.05   0.00   0.00   0.02 0.01 0.12     0.00    0.00    0.00
  190   0.93   0.17   1.38   0.25   0.11   0.00 211.12   3.53   5.04   1.79   0.00   0.00   0.02 0.00 0.14     0.00    0.00    0.00
  191   0.84   0.12   1.19   0.26   0.05   0.00 208.80   2.96   4.38   1.57   0.00   0.00   0.02 0.00 0.12     0.00    0.00    0.00
  192   0.02   0.09   1.04   0.27   0.02   0.00 205.26   3.61   5.30   1.40   0.00   0.00   0.01 0.00 0.12     0.00    0.00    0.00
  193   3.57   0.13   0.98   0.28   0.22   0.00 205.24   2.59   3.84   1.38   0.00   0.00   0.01 0.01 0.12     0.00    0.00    0.00
  194  10.65   0.52   1.42   0.29   0.50   0.00 211.19   1.01   1.32   2.23   0.00   0.00   0.01 0.04 0.09     0.00    0.00    0.00
  195  66.43  14.72   4.36   0.31  10.37   0.00 228.65   2.04   2.37  19.36   0.04   0.03   0.03 0.94 0.05     0.09    0.00    0.01
  196   0.84   3.81   3.13   0.33   3.09   0.00 222.56   3.39   4.45   7.26   0.01   0.01   0.02 0.27 0.11     0.02    0.00    0.00
  197   0.00   1.47   2.37   0.34   1.18   0.00 217.05   4.06   5.74   4.19   0.00   0.00   0.02 0.09 0.10     0.01    0.00    0.00
  198   0.00   0.74   1.88   0.36   0.46   0.00 213.17   3.29   4.92   2.98   0.00   0.00   0.02 0.02 0.09     0.00    0.00    0.00
  199   4.99   0.45   1.62   0.37   0.27   0.00 214.24   3.14   3.68   2.43   0.00   0.00   0.01 0.01 0.06     0.00    0.00    0.00
  200   2.72   0.30   1.41   0.38   0.24   0.00 214.91   1.11   1.35   2.09   0.00   0.00   0.01 0.01 0.04     0.00    0.00    0.00
  201   0.13   0.22   1.20   0.38   0.11   0.00 211.25   4.01   5.29   1.80   0.00   0.00   0.01 0.00 0.03     0.00    0.00    0.00
  202   0.00   0.17   1.03   0.37   0.05   0.00 207.60   3.58   5.31   1.57   0.00   0.00   0.01 0.00 0.05     0.00    0.00    0.00
  203   0.00   0.13   0.90   0.38   0.02   0.00 204.40   3.18   4.88   1.41   0.00   0.00   0.01 0.00 0.02     0.00    0.00    0.00
  204   0.72   0.13   0.85   0.39   0.05   0.00 202.18   2.67   4.28   1.37   0.00   0.00   0.01 0.00 0.02     0.00    0.00    0.00
  205   0.45   0.10   0.74   0.39   0.02   0.00 200.14   2.39   3.95   1.23   0.00   0.00   0.01 0.00 0.02     0.00    0.00    0.00
  206  10.77   0.42   1.02   0.39   0.43   0.00 205.99   2.20   3.02   1.83   0.00   0.00   0.01 0.01 0.02     0.00    0.00    0.00
  207   3.14   0.49   1.05   0.39   0.45   0.00 204.58   2.89   4.17   1.93   0.00   0.00   0.01 0.02 0.01     0.00    0.00    0.00
  208   0.35   0.20   0.82   0.39   0.17   0.00 202.06   2.64   4.13   1.42   0.00   0.00   0.01 0.01 0.02     0.00    0.00    0.00
  209   0.00   0.12   0.68   0.37   0.09   0.00 198.89   3.08   5.00   1.17   0.00   0.00   0.01 0.00 0.02     0.00    0.00    0.00
  210   0.00   0.09   0.58   0.35   0.04   0.00 196.05   2.79   4.61   1.02   0.00   0.00   0.01 0.00 0.04     0.00    0.00    0.00
  211   0.00   0.07   0.51   0.34   0.02   0.00 193.33   2.70   4.67   0.91   0.00   0.00   0.01 0.00 0.02     0.00    0.00    0.00
  212   0.00   0.05   0.45   0.30   0.01   0.00 190.32   3.01   5.34   0.80   0.00   0.00   0.00 0.00 0.03     0.00    0.00    0.00
    7 175.31  40.93  49.65   9.34  38.92   0.00 190.32  85.41 123.12  99.78   0.09   0.10   0.52   4.09   2.12     0.25    0.01    0.03
  213   0.00   0.04   0.40   0.26   0.00   0.00 187.44   2.88   5.38   0.71   0.00   0.00   0.00 0.00 0.04     0.00    0.00    0.00
  214   0.00   0.04   0.37   0.24   0.00   0.00 184.76   2.68   5.35   0.65   0.00   0.00   0.00 0.00 0.03     0.00    0.00    0.00
  215  11.26   0.13   0.55   0.24   0.00   0.00 192.50   1.88   2.64   0.92   0.00   0.00   0.00 0.00 0.03     0.00    0.00    0.00
  216   8.39   0.11   0.76   0.24   0.08   0.00 197.40   2.06   2.79   1.11   0.00   0.00   0.01 0.00 0.02     0.00    0.00    0.00
  217  11.86   0.21   1.12   0.23   0.45   0.00 203.37   3.14   3.57   1.56   0.00   0.00   0.01 0.01 0.02     0.00    0.00    0.00
  218  10.09   0.24   1.44   0.23   0.64   0.00 207.99   2.24   2.90   1.90   0.00   0.00   0.01 0.01 0.01     0.00    0.00    0.00
  219   1.17   0.10   1.03   0.22   0.23   0.00 206.76   2.06   2.78   1.34   0.00   0.00   0.01 0.00 0.00     0.00    0.00    0.00
  220  10.67   0.32   1.27   0.22   0.98   0.00 211.68   1.86   2.39   1.81   0.00   0.00   0.01 0.03 0.00     0.00    0.00    0.00
  221  63.63  11.95   4.38   0.24  10.21   0.00 229.46   0.68   0.83  16.54   0.03   0.02   0.03 0.74 0.00     0.04    0.00    0.01
  222   3.92   3.33   3.41   0.25   4.17   0.00 225.50   2.09   2.53   6.97   0.01   0.01   0.02 0.31 0.00     0.01    0.00    0.00
  223  42.47  13.32   4.16   0.28   9.06   0.00 229.72   2.07   2.64  17.74   0.03   0.03   0.03 0.81 0.00     0.09    0.00    0.01
  224   8.75   4.23   3.72   0.30   5.17   0.00 227.19   1.94   2.45   8.22   0.01   0.01   0.03 0.49 0.00     0.02    0.00    0.00
  225   4.52   2.17   3.20   0.33   2.77   0.00 223.34   3.41   4.23   5.69   0.00   0.01   0.03 0.23 0.00     0.01    0.00    0.00
  226   0.26   0.98   2.63   0.35   1.15   0.00 219.50   2.56   3.80   3.95   0.00   0.00   0.02 0.08 0.00     0.00    0.00    0.00
  227  11.12   1.64   2.58   0.37   2.24   0.00 221.30   2.78   3.67   4.58   0.00   0.00   0.02 0.15 0.00     0.00    0.00    0.00
  228  15.08   2.96   2.88   0.40   3.04   0.00 223.61   1.28   1.60   6.22   0.01   0.01   0.03 0.20 0.00     0.01    0.00    0.00
  229   1.76   1.34   2.44   0.42   1.59   0.00 220.55   2.48   3.39   4.20   0.00   0.00   0.02 0.10 0.00     0.00    0.00    0.00
  230   2.06   0.82   2.13   0.44   1.03   0.00 218.21   2.61   3.59   3.39   0.00   0.00   0.02 0.06 0.00     0.00    0.00    0.00
  231   0.86   0.53   1.84   0.46   0.49   0.00 215.21   3.07   4.49   2.83   0.00   0.00   0.02 0.02 0.00     0.00    0.00    0.00
  232  13.11   0.82   2.02   0.48   1.84   0.00 220.16   2.66   3.40   3.31   0.00   0.00   0.02 0.10 0.00     0.00    0.00    0.00
  233   0.92   0.37   1.77   0.49   0.84   0.00 216.82   2.99   4.17   2.63   0.00   0.00   0.02 0.05 0.00     0.00    0.00    0.00
  234   3.54   0.34   1.66   0.51   0.88   0.00 216.08   2.10   2.85   2.50   0.00   0.00   0.01 0.05 0.00     0.00    0.00    0.00
  235   1.60   0.29   1.49   0.52   0.69   0.00 213.68   2.72   4.05   2.30   0.00   0.00   0.01 0.05 0.00     0.00    0.00    0.00
  236   0.00   0.16   1.29   0.53   0.23   0.00 210.38   3.06   4.67   1.98   0.00   0.00   0.01 0.02 0.00     0.00    0.00    0.00
  237   0.00   0.12   1.12   0.50   0.09   0.00 206.99   3.27   5.19   1.74   0.00   0.00   0.01 0.01 0.00     0.00    0.00    0.00
  238   0.00   0.09   0.98   0.46   0.03   0.00 203.39   3.55   5.63   1.52   0.00   0.00   0.01 0.00 0.00     0.00    0.00    0.00
  239   3.20   0.14   0.93   0.45   0.18   0.00 202.49   3.44   5.03   1.51   0.00   0.00   0.01 0.01 0.00     0.00    0.00    0.00
  240  16.15   0.91   1.48   0.45   1.20   0.00 210.06   2.91   3.62   2.83   0.00   0.00   0.01 0.06 0.00     0.00    0.00    0.00
  241   0.68   0.31   1.20   0.45   0.53   0.00 207.06   2.80   4.52   1.96   0.00   0.00   0.01 0.03 0.00     0.00    0.00    0.00
  242  13.50   1.13   1.38   0.45   1.88   0.00 211.57   2.67   3.91   2.95   0.00   0.00   0.01 0.10 0.00     0.00    0.00    0.00
  243   2.01   0.34   1.26   0.46   1.04   0.00 209.51   2.29   3.37   2.05   0.00   0.00   0.01 0.06 0.00     0.00    0.00    0.00
    8 262.58  49.48  56.89  11.48  52.75   0.00 209.51  78.25 111.43 117.60   0.10   0.12   0.46   3.79   0.16     0.19    0.01    0.03
  244   0.06   0.15   1.09   0.45   0.35   0.00 206.81   2.32   3.81   1.69   0.00   0.00   0.01 0.02 0.00     0.00    0.00    0.00
  245   0.00   0.09   0.95   0.42   0.13   0.00 204.40   2.24   3.88   1.46   0.00   0.00   0.01 0.01 0.00     0.00    0.00    0.00
  246   0.34   0.07   0.83   0.41   0.07   0.00 202.57   2.04   3.53   1.31   0.00   0.00   0.01 0.00 0.00     0.00    0.00    0.00
  247   0.00   0.05   0.73   0.41   0.02   0.00 200.62   1.92   3.41   1.19   0.00   0.00   0.01 0.00 0.00     0.00    0.00    0.00
  248   0.03   0.04   0.64   0.36   0.01   0.00 198.65   1.99   3.56   1.04   0.00   0.00   0.01 0.00 0.00     0.00    0.00    0.00
  249   0.00   0.03   0.57   0.32   0.00   0.00 196.60   2.06   3.78   0.92   0.00   0.00   0.00 0.00 0.00     0.00    0.00    0.00
  250   0.00   0.03   0.51   0.29   0.00   0.00 194.59   2.01   3.74   0.83   0.00   0.00   0.00 0.00 0.00     0.00    0.00    0.00
  251   0.76   0.03   0.46   0.25   0.00   0.00 193.23   2.04   3.83   0.74   0.00   0.00   0.00 0.00 0.00     0.00    0.00    0.00
  252   0.00   0.02   0.42   0.22   0.00   0.00 191.19   2.07   4.02   0.66   0.00   0.00   0.00 0.00 0.00     0.00    0.00    0.00
  253   0.00   0.02   0.38   0.22   0.00   0.00 189.68   1.51   3.03   0.62   0.00   0.00   0.00 0.00 0.00     0.00    0.00    0.00
  254   0.03   0.02   0.35   0.18   0.00   0.00 187.65   2.05   4.11   0.54   0.00   0.00   0.00 0.00 0.00     0.00    0.00    0.00
  255   0.89   0.03   0.36   0.14   0.00   0.00 186.49   1.90   3.77   0.53   0.00   0.00   0.00 0.00 0.00     0.00    0.00    0.00
  256   0.19   0.02   0.32   0.14   0.00   0.00 184.84   1.85   3.71   0.47   0.00   0.00   0.00 0.00 0.00     0.00    0.00    0.00
  257   7.45   0.08   0.44   0.14   0.00   0.00 189.67   1.56   2.46   0.66   0.00   0.00   0.00 0.00 0.00     0.00    0.00    0.00
  258   4.00   0.08   0.47   0.14   0.00   0.00 190.47   2.84   3.98   0.68   0.00   0.00   0.00 0.00 0.00     0.00    0.00    0.00
  259   1.24   0.06   0.41   0.10   0.00   0.00 188.93   2.55   4.18   0.56   0.00   0.00   0.00 0.00 0.00     0.00    0.00    0.00
  260   2.42   0.04   0.39   0.07   0.00   0.00 188.68   2.38   3.94   0.49   0.00   0.00   0.00 0.00 0.00     0.00    0.00    0.00
  261  20.92   1.30   0.91   0.06   1.75   0.00 199.37   2.43   3.31   2.27   0.00   0.01   0.01 0.12 0.00     0.01    0.00    0.00
  262   6.15   0.40   0.95   0.07   0.63   0.00 201.62   1.98   2.75   1.42   0.00   0.00   0.01 0.03 0.00     0.00    0.00    0.00
  263   0.00   0.15   0.79   0.07   0.21   0.00 199.34   2.15   3.20   1.02   0.00   0.00   0.01 0.01 0.00     0.00    0.00    0.00
  264   8.84   0.56   0.96   0.08   1.13   0.00 202.97   1.10   1.58   1.59   0.00   0.00   0.01 0.06 0.00     0.00    0.00    0.00
  265   0.31   0.15   0.82   0.10   0.33   0.00 200.82   2.33   3.34   1.07   0.00   0.00   0.01 0.01 0.00     0.00    0.00    0.00
  266   0.00   0.07   0.70   0.10   0.12   0.00 198.69   2.01   3.42   0.87   0.00   0.00   0.01 0.00 0.00     0.00    0.00    0.00
  267   0.00   0.04   0.61   0.10   0.04   0.00 196.88   1.75   3.06   0.75   0.00   0.00   0.00 0.00 0.00     0.00    0.00    0.00
  268   0.00   0.03   0.53   0.09   0.02   0.00 195.00   1.86   3.34   0.65   0.00   0.00   0.00 0.00 0.00     0.00    0.00    0.00
  269   0.00   0.02   0.47   0.09   0.01   0.00 193.50   1.49   2.78   0.58   0.00   0.00   0.00 0.00 0.00     0.00    0.00    0.00
  270   0.00   0.02   0.41   0.09   0.00   0.00 191.96   1.54   2.96   0.52   0.00   0.00   0.00 0.00 0.00     0.00    0.00    0.00
  271   2.63   0.02   0.40   0.10   0.00   0.00 193.37   0.72   1.03   0.52   0.00   0.00   0.00 0.00 0.00     0.00    0.00    0.00
  272   5.34   0.04   0.48   0.11   0.00   0.00 196.91   1.16   1.47   0.62   0.00   0.00   0.00 0.00 0.00     0.00    0.00    0.00
  273   2.79   0.08   0.51   0.11   0.00   0.00 197.32   2.17   3.04   0.70   0.00   0.00   0.00 0.00 0.00     0.00    0.00    0.00
    9  64.38   3.73  17.84   5.44   4.82   0.00 197.32  57.99  98.01  26.98   0.01   0.04   0.13   0.27   0.00     0.02    0.00    0.00
  274   0.01   0.03   0.41   0.11   0.00   0.00 195.71   1.67   2.62   0.55   0.00   0.00   0.00 0.00 0.00     0.00    0.00    0.00
  275   0.00   0.02   0.34   0.11   0.00   0.00 193.91   1.80   2.97   0.47   0.00   0.00   0.00 0.00 0.00     0.00    0.00    0.00
  276   0.00   0.02   0.29   0.09   0.00   0.00 192.39   1.53   2.74   0.40   0.00   0.00   0.00 0.00 0.00     0.00    0.00    0.00
  277   0.00   0.01   0.26   0.09   0.00   0.00 191.13   1.26   2.36   0.36   0.00   0.00   0.00 0.00 0.00     0.00    0.00    0.00
  278   0.00   0.01   0.23   0.08   0.00   0.00 189.85   1.29   2.46   0.33   0.00   0.00   0.00 0.00 0.00     0.00    0.00    0.00
  279   0.00   0.01   0.21   0.06   0.00   0.00 188.04   1.81   3.53   0.28   0.00   0.00   0.00 0.00 0.00     0.00    0.00    0.00
  280   0.00   0.01   0.20   0.06   0.00   0.00 186.75   1.28   2.52   0.26   0.00   0.00   0.00 0.00 0.00     0.00    0.00    0.00
  281   0.00   0.01   0.18   0.06   0.00   0.00 185.48   1.28   2.57   0.24   0.00   0.00   0.00 0.00 0.00     0.00    0.00    0.00
  282   0.00   0.01   0.17   0.05   0.00   0.00 184.39   1.08   2.28   0.22   0.00   0.00   0.00 0.00 0.00     0.00    0.00    0.00
  283   0.00   0.01   0.16   0.05   0.00   0.00 183.33   1.06   2.26   0.21   0.00   0.00   0.00 0.00 0.00     0.00    0.00    0.00
  284   1.41   0.01   0.16   0.05   0.00   0.00 184.00   0.54   0.80   0.22   0.00   0.00   0.00 0.00 0.00     0.00    0.00    0.00
  285   0.23   0.00   0.14   0.05   0.00   0.00 182.79   1.59   2.76   0.20   0.00   0.00   0.00 0.00 0.00     0.00    0.00    0.00
  286   0.00   0.00   0.13   0.04   0.00   0.00 181.42   1.39   2.78   0.18   0.00   0.00   0.00 0.00 0.00     0.00    0.00    0.00
  287   0.66   0.00   0.12   0.04   0.00   0.00 181.24   0.75   1.30   0.17   0.00   0.00   0.00 0.00 0.00     0.00    0.00    0.00
  288   0.08   0.00   0.12   0.05   0.00   0.00 180.54   0.82   1.61   0.17   0.00   0.00   0.00 0.00 0.00     0.00    0.00    0.00
  289   0.00   0.00   0.11   0.05   0.00   0.00 179.50   1.09   2.24   0.16   0.00   0.00   0.00 0.00 0.00     0.00    0.00    0.00
  290   0.00   0.00   0.10   0.04   0.00   0.00 178.29   1.21   2.56   0.15   0.00   0.00   0.00 0.00 0.00     0.00    0.00    0.00
  291   0.00   0.00   0.10   0.04   0.00   0.00 177.26   1.02   2.27   0.14   0.00   0.00   0.00 0.00 0.00     0.00    0.00    0.00
  292   0.02   0.00   0.09   0.03   0.00   0.00 176.27   1.01   2.24   0.12   0.00   0.00   0.00 0.00 0.00     0.00    0.00    0.00
  293   0.00   0.00   0.09   0.01   0.00   0.00 175.07   1.20   2.79   0.10   0.00   0.00   0.00 0.00 0.00     0.00    0.00    0.00
  294   0.00   0.00   0.08   0.01   0.00   0.00 174.21   0.87   2.12   0.10   0.00   0.00   0.00 0.00 0.00     0.00    0.00    0.00
  295   0.00   0.00   0.08   0.01   0.00   0.00 173.19   1.02   2.57   0.09   0.00   0.00   0.00 0.00 0.00     0.00    0.00    0.00
  296   0.00   0.00   0.08   0.00   0.00   0.00 172.18   1.00   2.56   0.08   0.00   0.00   0.00 0.00 0.00     0.00    0.00    0.00
  297   0.00   0.00   0.07   0.00   0.00   0.00 171.10   1.09   2.89   0.08   0.00   0.00   0.00 0.00 0.00     0.00    0.00    0.00
  298   0.00   0.00   0.07   0.00   0.00   0.00 170.13   0.97   2.60   0.07   0.00   0.00   0.00 0.00 0.00     0.00    0.00    0.00
  299   0.00   0.00   0.07   0.00   0.00   0.00 169.09   1.04   2.80   0.07   0.00   0.00   0.00 0.00 0.00     0.00    0.00    0.00
  300   0.00   0.00   0.06   0.00   0.00   0.00 168.28   0.81   2.23   0.07   0.00   0.00   0.00 0.00 0.00     0.00    0.00    0.00
  301   0.00   0.00   0.06   0.00   0.00   0.00 167.53   0.75   2.07   0.06   0.00   0.00   0.00 0.00 0.00     0.00    0.00    0.00
  302   0.00   0.00   0.06   0.00   0.00   0.00 166.69   0.84   2.32   0.06   0.00   0.00   0.00 0.00 0.00     0.00    0.00    0.00
  303   0.00   0.00   0.06   0.00   0.00   0.00 165.96   0.74   2.14   0.06   0.00   0.00   0.00 0.00 0.00     0.00    0.00    0.00
  304   0.00   0.00   0.05   0.00   0.00   0.00 165.14   0.82   2.41   0.06   0.00   0.00   0.00 0.00 0.00     0.00    0.00    0.00
   10   2.40   0.17   4.36   1.19   0.00   0.00 165.14  34.62  74.36   5.72   0.00   0.01   0.04   0.00   0.00     0.00    0.00    0.00
  305   0.09   0.00   0.05   0.00   0.00   0.00 164.47   0.76   2.13   0.05   0.00   0.00   0.00 0.00 0.00     0.00    0.00    0.00
  306   0.00   0.00   0.05   0.00   0.00   0.00 163.93   0.54   1.71   0.05   0.00   0.00   0.00 0.00 0.00     0.00    0.00    0.00
  307   0.00   0.00   0.05   0.00   0.00   0.00 163.52   0.41   1.34   0.05   0.00   0.00   0.00 0.00 0.00     0.00    0.00    0.00
  308   0.00   0.00   0.05   0.00   0.00   0.00 163.04   0.49   1.52   0.05   0.00   0.00   0.00 0.00 0.00     0.00    0.00    0.00
  309   0.00   0.00   0.04   0.00   0.00   0.00 162.58   0.45   1.36   0.05   0.00   0.00   0.00 0.00 0.00     0.00    0.00    0.00
  310   0.00   0.00   0.04   0.00   0.00   0.00 162.01   0.57   1.73   0.05   0.00   0.00   0.00 0.00 0.00     0.00    0.00    0.00
  311   0.00   0.00   0.04   0.00   0.00   0.00 161.25   0.76   2.31   0.04   0.00   0.00   0.00 0.00 0.00     0.00    0.00    0.00
  312   0.74   0.00   0.04   0.00   0.00   0.00 161.17   0.76   1.73   0.04   0.00   0.00   0.00 0.00 0.00     0.00    0.00    0.00
  313  10.00   0.08   0.20   0.00   0.00   0.00 168.83   0.90   1.14   0.28   0.00   0.01   0.00 0.00 0.00     0.00    0.00    0.00
  314   0.13   0.02   0.15   0.00   0.00   0.00 168.04   1.35   2.05   0.17   0.00   0.00   0.00 0.00 0.00     0.00    0.00    0.00
  315  10.40   0.09   0.37   0.00   0.00   0.00 175.97   0.38   0.46   0.45   0.00   0.01   0.00 0.00 0.00     0.00    0.00    0.00
  316  26.10   0.61   1.45   0.00   0.05   0.00 195.37   0.03   0.03   2.06   0.00   0.01   0.01 0.00 0.00     0.00    0.00    0.00
  317   1.10   0.17   1.03   0.00   0.02   0.00 195.99   0.47   0.57   1.20   0.00   0.00   0.01 0.00 0.00     0.00    0.00    0.00
  318   0.02   0.09   0.73   0.00   0.01   0.00 195.46   0.93   1.24   0.82   0.00   0.00   0.00 0.00 0.00     0.00    0.00    0.00
  319   0.84   0.06   0.57   0.00   0.01   0.00 195.59   0.41   0.53   0.63   0.00   0.00   0.00 0.00 0.00     0.00    0.00    0.00
  320  11.19   0.16   0.99   0.00   0.35   0.00 202.90   0.25   0.28   1.15   0.00   0.00   0.01 0.03 0.00     0.00    0.00    0.00
  321   0.51   0.07   0.76   0.00   0.23   0.00 202.49   0.85   1.11   0.83   0.00   0.00   0.01 0.02 0.00     0.00    0.00    0.00
  322   0.07   0.05   0.60   0.01   0.10   0.00 201.78   0.97   1.36   0.65   0.00   0.00   0.00 0.01 0.00     0.00    0.00    0.00
  323   0.01   0.04   0.49   0.01   0.04   0.00 200.99   0.89   1.28   0.53   0.00   0.00   0.00 0.00 0.00     0.00    0.00    0.00
  324   0.00   0.03   0.41   0.01   0.02   0.00 200.28   0.71   1.06   0.44   0.00   0.00   0.00 0.00 0.00     0.00    0.00    0.00
  325   0.02   0.03   0.34   0.01   0.01   0.00 199.49   0.79   1.21   0.38   0.00   0.00   0.00 0.00 0.00     0.00    0.00    0.00
  326   0.02   0.02   0.30   0.01   0.00   0.00 198.72   0.79   1.21   0.33   0.00   0.00   0.00 0.00 0.00     0.00    0.00    0.00
  327   0.00   0.02   0.26   0.01   0.00   0.00 197.94   0.78   1.20   0.28   0.00   0.00   0.00 0.00 0.00     0.00    0.00    0.00
  328   0.00   0.02   0.22   0.01   0.00   0.00 197.24   0.71   1.10   0.25   0.00   0.00   0.00 0.00 0.00     0.00    0.00    0.00
  329   0.00   0.01   0.20   0.00   0.00   0.00 196.40   0.84   1.32   0.22   0.00   0.00   0.00 0.00 0.00     0.00    0.00    0.00
  330   0.00   0.01   0.18   0.00   0.00   0.00 195.17   1.23   1.94   0.19   0.00   0.00   0.00 0.00 0.00     0.00    0.00    0.00
  331   0.00   0.01   0.16   0.00   0.00   0.00 194.11   1.06   1.71   0.17   0.00   0.00   0.00 0.00 0.00     0.00    0.00    0.00
  332   0.00   0.01   0.14   0.00   0.00   0.00 193.22   0.89   1.48   0.15   0.00   0.00   0.00 0.00 0.00     0.00    0.00    0.00
  333   0.00   0.01   0.13   0.00   0.00   0.00 192.68   0.54   0.92   0.14   0.00   0.00   0.00 0.00 0.00     0.00    0.00    0.00
  334   0.00   0.01   0.11   0.00   0.00   0.00 191.80   0.89   1.48   0.13   0.00   0.00   0.00 0.00 0.00     0.00    0.00    0.00
   11  61.23   1.60  10.14   0.11   0.84   0.00 191.80  21.41  38.50  11.83   0.01   0.04   0.07   0.06   0.00     0.01    0.00    0.00
  335   0.00   0.01   0.10   0.00   0.00   0.00 190.93   0.86   1.48   0.11   0.00   0.00   0.00 0.00 0.00     0.00    0.00    0.00
  336   0.00   0.00   0.10   0.00   0.00   0.00 190.28   0.65   1.12   0.10   0.00   0.00   0.00 0.00 0.00     0.00    0.00    0.00
  337   0.00   0.00   0.09   0.00   0.00   0.00 189.83   0.45   0.82   0.10   0.00   0.00   0.00 0.00 0.00     0.00    0.00    0.00
  338   0.00   0.00   0.08   0.00   0.00   0.00 189.34   0.49   0.88   0.09   0.00   0.00   0.00 0.00 0.00     0.00    0.00    0.00
  339   0.00   0.00   0.08   0.00   0.00   0.00 188.61   0.74   1.30   0.08   0.00   0.00   0.00 0.00 0.00     0.00    0.00    0.00
  340   0.00   0.00   0.07   0.00   0.00   0.00 188.13   0.48   0.86   0.07   0.00   0.00   0.00 0.00 0.00     0.00    0.00    0.00
  341   0.81   0.00   0.07   0.00   0.00   0.00 188.31   0.33   0.49   0.07   0.00   0.00   0.00 0.00 0.00     0.00    0.00    0.00
  342  14.12   0.18   0.43   0.00   0.26   0.00 198.91   0.50   0.60   0.61   0.00   0.00   0.00 0.03 0.00     0.00    0.00    0.00
  343   3.33   0.07   0.45   0.00   0.43   0.00 200.17   0.89   1.11   0.51   0.00   0.00   0.00 0.04 0.00     0.00    0.00    0.00
  344   5.30   0.05   0.57   0.00   0.41   0.00 203.02   0.72   0.89   0.61   0.00   0.00   0.00 0.03 0.00     0.00    0.00    0.00
  345   0.03   0.02   0.44   0.00   0.13   0.00 202.34   0.88   1.17   0.47   0.00   0.00   0.00 0.01 0.00     0.00    0.00    0.00
  346   0.00   0.01   0.36   0.00   0.05   0.00 201.71   0.76   1.07   0.38   0.00   0.00   0.00 0.00 0.00     0.00    0.00    0.00
  347   0.10   0.01   0.30   0.00   0.03   0.00 200.91   0.88   1.25   0.31   0.00   0.00   0.00 0.00 0.00     0.00    0.00    0.00
  348   0.00   0.01   0.25   0.00   0.01   0.00 199.90   1.01   1.51   0.27   0.00   0.00   0.00 0.00 0.00     0.00    0.00    0.00
  349   5.71   0.05   0.40   0.00   0.09   0.00 203.45   0.59   0.72   0.45   0.00   0.00   0.00 0.00 0.00     0.00    0.00    0.00
  350   0.22   0.02   0.31   0.01   0.06   0.00 203.19   0.38   0.53   0.34   0.00   0.00   0.00 0.00 0.00     0.00    0.00    0.00
  351   1.28   0.01   0.29   0.01   0.09   0.00 203.85   0.03   0.04   0.31   0.00   0.00   0.00 0.01 0.00     0.00    0.00    0.00
  352   0.00   0.01   0.24   0.01   0.03   0.00 203.54   0.59   0.74   0.25   0.00   0.00   0.00 0.00 0.00     0.00    0.00    0.00
  353   0.00   0.01   0.21   0.01   0.03   0.00 203.30   0.71   0.94   0.22   0.00   0.00   0.00 0.00 0.00     0.00    0.00    0.00
  354   0.00   0.01   0.18   0.01   0.01   0.00 202.92   0.37   0.61   0.19   0.00   0.00   0.00 0.00 0.00     0.00    0.00    0.00
  355   0.00   0.01   0.15   0.01   0.00   0.00 202.33   0.58   0.97   0.17   0.00   0.00   0.00 0.00 0.00     0.00    0.00    0.00
  356   0.00   0.01   0.13   0.01   0.00   0.00 201.66   0.67   1.08   0.15   0.00   0.00   0.00 0.00 0.00     0.00    0.00    0.00
  357   0.00   0.00   0.12   0.01   0.00   0.00 200.97   0.70   1.18   0.13   0.00   0.00   0.00 0.00 0.00     0.00    0.00    0.00
  358   0.00   0.00   0.11   0.01   0.00   0.00 200.18   0.79   1.34   0.12   0.00   0.00   0.00 0.00 0.00     0.00    0.00    0.00
  359   0.09   0.00   0.10   0.01   0.00   0.00 199.58   0.68   1.11   0.11   0.00   0.00   0.00 0.00 0.00     0.00    0.00    0.00
  360   1.51   0.00   0.10   0.01   0.07   0.00 200.17   0.74   0.82   0.11   0.00   0.00   0.00 0.01 0.00     0.00    0.00    0.00
  361   5.47   0.03   0.26   0.01   0.27   0.00 203.84   0.45   0.46   0.29   0.00   0.00   0.00 0.03 0.09     0.00    0.00    0.00
  362   0.01   0.01   0.20   0.01   0.08   0.00 203.38   0.52   0.72   0.22   0.00   0.00   0.00 0.01 0.15     0.00    0.00    0.00
  363  15.10   0.26   1.02   0.01   1.76   0.00 211.35   0.12   0.12   1.27   0.00   0.00   0.01 0.14 0.04     0.00    0.00    0.00
  364   0.41   0.07   0.76   0.01   0.65   0.00 210.52   0.57   0.65   0.84   0.00   0.00   0.01 0.04 0.10     0.00    0.00    0.00
  365   0.00   0.03   0.59   0.01   0.24   0.00 209.72   0.63   0.88   0.64   0.00   0.00   0.01 0.01 0.15     0.00    0.00    0.00
   12  53.47   0.93   8.55   0.18   4.70   0.00 209.72  18.79  27.45   9.59   0.00   0.01   0.08   0.37   0.52     0.00    0.00    0.00

 20091241.09 161.68 272.06  30.03 209.10   0.00 209.72 558.53 796.11 462.14   0.41   0.68   4.32  27.55  42.75     0.70    0.03    0.09
1
    SWAT Aug 23 2011    VER 2009/Rev. 488                                           

    General Input/Output section (file.cio):                                        
    2013/12/18 0:00:00 ARCGIS-SWAT interface AV                                     
                                                                                    
    FINAL VALUES

1
    SWAT Aug 23 2011    VER 2009/Rev. 488                                           

    General Input/Output section (file.cio):                                        
    2013/12/18 0:00:00 ARCGIS-SWAT interface AV                                     
                                                                                    
                                            Average Crop Values
                                 Crop 1              Crop 2              Crop 3
                             Yld      Biomass   Yld      Biomass      Yld      Biomass
                           (kg/ha)    (kg/ha)  (kg/ha)   (kg/ha)     (kg/ha)    (kg/ha)

 RICE  HRU      1 Rot   1     0.0       0.0    2755.5    7167.0       0.0       0.0
 FRST  HRU      2 Rot   1     0.0   23724.7       0.0   15928.4       0.0       0.0
 FRST  HRU      3 Rot   1     0.0   18374.7       0.0   14985.2       0.0       0.0
 RICE  HRU      4 Rot   1     0.0       0.0    2575.3    6691.4       0.0       0.0
 RICE  HRU      5 Rot   1     0.0       0.0    2775.3    7212.1       0.0       0.0
 RICE  HRU      6 Rot   1     0.0       0.0    2761.1    7174.9       0.0       0.0
 FRST  HRU      7 Rot   1     0.0   23058.5       0.0   15485.9       0.0       0.0
 FRST  HRU      8 Rot   1     0.0   18033.2       0.0   14461.4       0.0       0.0
 BERM  HRU      9 Rot   1     0.0       0.0   21249.2   30387.7       0.0       0.0
 BERM  HRU     10 Rot   1     0.0       0.0   21701.1   31048.6       0.0       0.0
 BERM  HRU     11 Rot   1     0.0       0.0   21709.1   31060.0       0.0       0.0
 FRST  HRU     12 Rot   1     0.0   20003.0       0.0   15923.7       0.0       0.0
 FRST  HRU     13 Rot   1     0.0   23699.2       0.0   15895.7       0.0       0.0
 ORCD  HRU     14 Rot   1     0.0   18736.9       0.0   11443.5       0.0       0.0
 BERM  HRU     15 Rot   1     0.0       0.0   22439.1   32115.1       0.0       0.0
 BERM  HRU     16 Rot   1     0.0       0.0   22568.3   32296.7       0.0       0.0
 BERM  HRU     17 Rot   1     0.0       0.0   22331.4   31952.2       0.0       0.0
 RICE  HRU     18 Rot   1     0.0       0.0    2910.3    7558.3       0.0       0.0
 RICE  HRU     19 Rot   1     0.0       0.0    2954.6    7670.7       0.0       0.0
 RICE  HRU     20 Rot   1     0.0       0.0    2867.6    7449.4       0.0       0.0
 FRST  HRU     21 Rot   1     0.0   19719.3       0.0   15262.5       0.0       0.0
 FRST  HRU     22 Rot   1     0.0   23170.9       0.0   15249.9       0.0       0.0
 ORCD  HRU     23 Rot   1     0.0   18369.5       0.0   10936.1       0.0       0.0
 ORCD  HRU     24 Rot   1     0.0   18376.9       0.0   10896.0       0.0       0.0
 RICE  HRU     25 Rot   1     0.0       0.0    2818.4    7329.9       0.0       0.0
 RICE  HRU     26 Rot   1     0.0       0.0    2733.9    7110.0       0.0       0.0
 RICE  HRU     27 Rot   1     0.0       0.0    2863.5    7449.4       0.0       0.0
 RICE  HRU     28 Rot   1     0.0       0.0    2869.7    7466.0       0.0       0.0
 FRST  HRU     29 Rot   1     0.0   20045.9       0.0   15931.9       0.0       0.0
 FRST  HRU     30 Rot   1     0.0   23733.3       0.0   15937.5       0.0       0.0
 FRST  HRU     31 Rot   1     0.0   18365.5       0.0   14977.9       0.0       0.0
 ORCD  HRU     32 Rot   1     0.0   18722.3       0.0   11475.3       0.0       0.0
 ORCD  HRU     33 Rot   1     0.0   18723.0       0.0   11430.3       0.0       0.0
 RICE  HRU     34 Rot   1     0.0       0.0    2994.2    7762.2       0.0       0.0
 RICE  HRU     35 Rot   1     0.0       0.0    2910.8    7544.3       0.0       0.0
 RICE  HRU     36 Rot   1     0.0       0.0    2925.5    7582.5       0.0       0.0
 FRST  HRU     37 Rot   1     0.0   20191.3       0.0   15663.6       0.0       0.0
 FRST  HRU     38 Rot   1     0.0   23674.1       0.0   15631.4       0.0       0.0
 ORCD  HRU     39 Rot   1     0.0   18674.6       0.0   11053.0       0.0       0.0
 ORCD  HRU     40 Rot   1     0.0   18789.8       0.0   11064.2       0.0       0.0
 BERM  HRU     41 Rot   1     0.0       0.0   22545.7   32277.5       0.0       0.0
 BERM  HRU     42 Rot   1     0.0       0.0   22548.0   32280.6       0.0       0.0
 BERM  HRU     43 Rot   1     0.0       0.0   23312.9   33380.5       0.0       0.0
 BERM  HRU     44 Rot   1     0.0       0.0   22573.7   32311.0       0.0       0.0
 BERM  HRU     45 Rot   1     0.0       0.0   22517.3   32229.7       0.0       0.0
 FRST  HRU     46 Rot   1     0.0   19875.1       0.0   15526.3       0.0       0.0
 FRST  HRU     47 Rot   1     0.0   22812.4       0.0   15572.7       0.0       0.0
 ORCD  HRU     48 Rot   1     0.0   18068.0       0.0   11041.2       0.0       0.0
 ORCD  HRU     49 Rot   1     0.0   18124.3       0.0   11001.8       0.0       0.0
 ORCD  HRU     50 Rot   1     0.0   18209.6       0.0   11048.3       0.0       0.0
 WWHT  HRU     51 Rot   1     0.0       0.0    3766.5   12130.5       0.0       0.0
 WWHT  HRU     52 Rot   1     0.0       0.0    3744.0   12058.1       0.0       0.0
 FRST  HRU     53 Rot   1     0.0   20037.7       0.0   15930.5       0.0       0.0
 FRST  HRU     54 Rot   1     0.0   23705.9       0.0   15905.2       0.0       0.0
 ORCD  HRU     55 Rot   1     0.0   18721.0       0.0   11475.5       0.0       0.0
 RICE  HRU     56 Rot   1     0.0       0.0    2932.8    7601.7       0.0       0.0
 RICE  HRU     57 Rot   1     0.0       0.0    2888.4    7489.1       0.0       0.0
 RICE  HRU     58 Rot   1     0.0       0.0    2979.0    7723.1       0.0       0.0
 FRST  HRU     59 Rot   1     0.0   23666.6       0.0   15630.3       0.0       0.0
 FRST  HRU     60 Rot   1     0.0   23506.1       0.0   15733.6       0.0       0.0
 ORCD  HRU     61 Rot   1     0.0   18794.6       0.0   11064.1       0.0       0.0
 ORCD  HRU     62 Rot   1     0.0   18696.6       0.0   11012.7       0.0       0.0
 BERM  HRU     63 Rot   1     0.0       0.0   23235.1   33269.1       0.0       0.0
 BERM  HRU     64 Rot   1     0.0       0.0   22440.5   32119.2       0.0       0.0
 BERM  HRU     65 Rot   1     0.0       0.0   22644.7   32414.2       0.0       0.0
 BERM  HRU     66 Rot   1     0.0       0.0   22641.7   32409.8       0.0       0.0
 FRST  HRU     67 Rot   1     0.0   20045.0       0.0   15253.5       0.0       0.0
 ORCD  HRU     68 Rot   1     0.0   18184.2       0.0   10967.2       0.0       0.0
 FRST  HRU     69 Rot   1     0.0   20041.2       0.0   15252.2       0.0       0.0
 ORCD  HRU     70 Rot   1     0.0   18169.3       0.0   10967.1       0.0       0.0
 RICE  HRU     71 Rot   1     0.0       0.0    2938.5    7628.8       0.0       0.0
 RICE  HRU     72 Rot   1     0.0       0.0    3024.3    7851.5       0.0       0.0
 RICE  HRU     73 Rot   1     0.0       0.0    2814.9    7310.8       0.0       0.0
 RICE  HRU     74 Rot   1     0.0       0.0    2700.4    7011.9       0.0       0.0
 FRST  HRU     75 Rot   1     0.0   23141.0       0.0   15241.1       0.0       0.0
 FRST  HRU     76 Rot   1     0.0   23321.0       0.0   15353.8       0.0       0.0
 FRST  HRU     77 Rot   1     0.0   18750.7       0.0   14941.0       0.0       0.0
 ORCD  HRU     78 Rot   1     0.0   18372.6       0.0   10909.0       0.0       0.0
 ORCD  HRU     79 Rot   1     0.0   18359.0       0.0   10873.6       0.0       0.0
 RICE  HRU     80 Rot   1     0.0       0.0    2734.6    7129.3       0.0       0.0
 RICE  HRU     81 Rot   1     0.0       0.0    2780.9    7250.4       0.0       0.0
 RICE  HRU     82 Rot   1     0.0       0.0    2797.7    7295.5       0.0       0.0
 FRST  HRU     83 Rot   1     0.0   22464.7       0.0   15523.5       0.0       0.0
 FRST  HRU     84 Rot   1     0.0   18932.6       0.0   15326.4       0.0       0.0
 ORCD  HRU     85 Rot   1     0.0   18008.0       0.0   11000.5       0.0       0.0
 BERM  HRU     86 Rot   1     0.0       0.0   22674.8   32457.1       0.0       0.0
 BERM  HRU     87 Rot   1     0.0       0.0   22766.1   32589.6       0.0       0.0
 RICE  HRU     88 Rot   1     0.0       0.0    2165.2    5863.3       0.0       0.0
 RICE  HRU     89 Rot   1     0.0       0.0    2093.0    5665.3       0.0       0.0
 RICE  HRU     90 Rot   1     0.0       0.0    2082.5    5635.3       0.0       0.0
 FRST  HRU     91 Rot   1     0.0   16612.9       0.0   12591.7       0.0       0.0
 ORCD  HRU     92 Rot   1     0.0   14711.7       0.0    8445.6       0.0       0.0
 ORCD  HRU     93 Rot   1     0.0   14967.0       0.0    8459.1       0.0       0.0
 ORCD  HRU     94 Rot   1     0.0   14035.0       0.0    8418.7       0.0       0.0
 RICE  HRU     95 Rot   1     0.0       0.0    2141.5    5805.1       0.0       0.0
 RICE  HRU     96 Rot   1     0.0       0.0    2123.0    5753.8       0.0       0.0
 RICE  HRU     97 Rot   1     0.0       0.0    2152.7    5837.3       0.0       0.0
 RICE  HRU     98 Rot   1     0.0       0.0    2144.2    5813.5       0.0       0.0
 FRST  HRU     99 Rot   1     0.0   16250.6       0.0   12541.0       0.0       0.0
 FRST  HRU    100 Rot   1     0.0   18254.4       0.0   12580.1       0.0       0.0
 ORCD  HRU    101 Rot   1     0.0   14531.0       0.0    8292.5       0.0       0.0
 ORCD  HRU    102 Rot   1     0.0   14177.3       0.0    8270.4       0.0       0.0
 FRST  HRU    103 Rot   1     0.0   19392.9       0.0   15390.6       0.0       0.0
 FRST  HRU    104 Rot   1     0.0   23065.6       0.0   15495.9       0.0       0.0
 ORCD  HRU    105 Rot   1     0.0   18173.9       0.0   11099.6       0.0       0.0
 ORCD  HRU    106 Rot   1     0.0   18195.8       0.0   11081.5       0.0       0.0
 ORCD  HRU    107 Rot   1     0.0   18116.0       0.0   10956.0       0.0       0.0
 RICE  HRU    108 Rot   1     0.0       0.0    2150.3    5788.2       0.0       0.0
 RICE  HRU    109 Rot   1     0.0       0.0    2104.6    5662.8       0.0       0.0
 FRST  HRU    110 Rot   1     0.0   16305.9       0.0   12302.2       0.0       0.0
 FRST  HRU    111 Rot   1     0.0   19131.9       0.0   12418.9       0.0       0.0
 ORCD  HRU    112 Rot   1     0.0   14482.2       0.0    8086.9       0.0       0.0
 ORCD  HRU    113 Rot   1     0.0   14648.6       0.0    8105.4       0.0       0.0
 ORCD  HRU    114 Rot   1     0.0   14560.6       0.0    8065.5       0.0       0.0
 RICE  HRU    115 Rot   1     0.0       0.0    2050.7    5519.8       0.0       0.0
 RICE  HRU    116 Rot   1     0.0       0.0    2075.5    5587.5       0.0       0.0
 RICE  HRU    117 Rot   1     0.0       0.0    2070.2    5573.6       0.0       0.0
 WWHT  HRU    118 Rot   1     0.0       0.0    3240.8   10467.3       0.0       0.0
 WWHT  HRU    119 Rot   1     0.0       0.0    3308.0   10684.3       0.0       0.0
 WWHT  HRU    120 Rot   1     0.0       0.0    3303.4   10669.4       0.0       0.0
 FRST  HRU    121 Rot   1     0.0   15879.1       0.0   12230.0       0.0       0.0
 BERM  HRU    122 Rot   1     0.0       0.0   18623.4   26670.2       0.0       0.0
 BERM  HRU    123 Rot   1     0.0       0.0   18813.5   26946.5       0.0       0.0
 BERM  HRU    124 Rot   1     0.0       0.0   18817.3   26952.3       0.0       0.0
 FRST  HRU    125 Rot   1     0.0   19872.7       0.0   15526.8       0.0       0.0
 FRST  HRU    126 Rot   1     0.0   22733.9       0.0   15573.0       0.0       0.0
 ORCD  HRU    127 Rot   1     0.0   18105.5       0.0   11041.4       0.0       0.0
 ORCD  HRU    128 Rot   1     0.0   18209.8       0.0   11048.6       0.0       0.0
 ORCD  HRU    129 Rot   1     0.0   18116.2       0.0   11001.2       0.0       0.0
 RICE  HRU    130 Rot   1     0.0       0.0    2065.7    5673.2       0.0       0.0
 RICE  HRU    131 Rot   1     0.0       0.0    1984.9    5448.2       0.0       0.0
 RICE  HRU    132 Rot   1     0.0       0.0    2013.6    5529.5       0.0       0.0
 RICE  HRU    133 Rot   1     0.0       0.0    2009.0    5516.2       0.0       0.0
 FRST  HRU    134 Rot   1     0.0   16454.0       0.0   12470.3       0.0       0.0
 ORCD  HRU    135 Rot   1     0.0   14351.1       0.0    8275.1       0.0       0.0
 ORCD  HRU    136 Rot   1     0.0   13998.3       0.0    8253.6       0.0       0.0
 BERM  HRU    137 Rot   1     0.0       0.0   18409.6   26372.1       0.0       0.0
 BERM  HRU    138 Rot   1     0.0       0.0   18367.6   26312.0       0.0       0.0
 BERM  HRU    139 Rot   1     0.0       0.0   18713.7   26799.5       0.0       0.0
 BERM  HRU    140 Rot   1     0.0       0.0   18914.9   27094.4       0.0       0.0
 BERM  HRU    141 Rot   1     0.0       0.0   18880.2   27044.6       0.0       0.0
 FRST  HRU    142 Rot   1     0.0   22791.1       0.0   15573.3       0.0       0.0
 ORCD  HRU    143 Rot   1     0.0   18210.1       0.0   11048.9       0.0       0.0
 ORCD  HRU    144 Rot   1     0.0   18116.9       0.0   11001.5       0.0       0.0
 BERM  HRU    145 Rot   1     0.0       0.0   22057.0   31574.1       0.0       0.0
 BERM  HRU    146 Rot   1     0.0       0.0   22228.7   31819.8       0.0       0.0
 BERM  HRU    147 Rot   1     0.0       0.0   21571.8   30865.9       0.0       0.0
 BERM  HRU    148 Rot   1     0.0       0.0   21619.2   30933.7       0.0       0.0
 FRST  HRU    149 Rot   1     0.0   16419.5       0.0   12587.4       0.0       0.0
 FRST  HRU    150 Rot   1     0.0   18908.0       0.0   12607.9       0.0       0.0
 FRST  HRU    151 Rot   1     0.0   15944.6       0.0   12509.0       0.0       0.0
 ORCD  HRU    152 Rot   1     0.0   14101.9       0.0    8304.7       0.0       0.0
 ORCD  HRU    153 Rot   1     0.0   14202.7       0.0    8274.6       0.0       0.0
 WWHT  HRU    154 Rot   1     0.0       0.0    3053.9    9863.6       0.0       0.0
 WWHT  HRU    155 Rot   1     0.0       0.0    3045.3    9835.8       0.0       0.0
 WWHT  HRU    156 Rot   1     0.0       0.0    3052.5    9858.9       0.0       0.0
 WWHT  HRU    157 Rot   1     0.0       0.0    3055.6    9869.1       0.0       0.0
 FRST  HRU    158 Rot   1     0.0   16419.4       0.0   12587.9       0.0       0.0
 ORCD  HRU    159 Rot   1     0.0   14100.9       0.0    8304.9       0.0       0.0
 ORCD  HRU    160 Rot   1     0.0   14203.2       0.0    8274.9       0.0       0.0
 BERM  HRU    161 Rot   1     0.0       0.0   18318.6   26243.1       0.0       0.0
 BERM  HRU    162 Rot   1     0.0       0.0   18043.6   25841.1       0.0       0.0
 WWHT  HRU    163 Rot   1     0.0       0.0    3045.1    9835.0       0.0       0.0
 WWHT  HRU    164 Rot   1     0.0       0.0    3051.5    9855.8       0.0       0.0
 WWHT  HRU    165 Rot   1     0.0       0.0    3021.4    9758.4       0.0       0.0
 WWHT  HRU    166 Rot   1     0.0       0.0    3052.5    9859.0       0.0       0.0
 FRST  HRU    167 Rot   1     0.0   16423.9       0.0   12588.3       0.0       0.0
 FRST  HRU    168 Rot   1     0.0   18908.2       0.0   12608.0       0.0       0.0
 ORCD  HRU    169 Rot   1     0.0   14080.7       0.0    8304.9       0.0       0.0
 BERM  HRU    170 Rot   1     0.0       0.0   18308.2   26228.2       0.0       0.0
 BERM  HRU    171 Rot   1     0.0       0.0   18034.9   25828.7       0.0       0.0
 FRST  HRU    172 Rot   1     0.0   16504.6       0.0   12589.8       0.0       0.0
 FRST  HRU    173 Rot   1     0.0   16268.4       0.0   12528.5       0.0       0.0
 ORCD  HRU    174 Rot   1     0.0   14194.4       0.0    8275.2       0.0       0.0
 BERM  HRU    175 Rot   1     0.0       0.0   17909.5   25652.0       0.0       0.0
 BERM  HRU    176 Rot   1     0.0       0.0   18069.5   25877.7       0.0       0.0
 WATR  HRU    177 Rot   1     0.0       0.0       0.0       0.0       0.0       0.0
 WATR  HRU    178 Rot   1     0.0       0.0       0.0       0.0       0.0       0.0
 FRST  HRU    179 Rot   1     0.0   20217.8       0.0   15670.4       0.0       0.0
 ORCD  HRU    180 Rot   1     0.0   18667.5       0.0   11053.3       0.0       0.0
 ORCD  HRU    181 Rot   1     0.0   18795.1       0.0   11064.4       0.0       0.0
 ORCD  HRU    182 Rot   1     0.0   18697.4       0.0   11013.2       0.0       0.0
 FRST  HRU    183 Rot   1     0.0   16889.0       0.0   12864.9       0.0       0.0
 ORCD  HRU    184 Rot   1     0.0   14671.5       0.0    8668.0       0.0       0.0
 ORCD  HRU    185 Rot   1     0.0   14946.8       0.0    8678.7       0.0       0.0
 ORCD  HRU    186 Rot   1     0.0   14500.1       0.0    8659.0       0.0       0.0
 FRST  HRU    187 Rot   1     0.0   16792.8       0.0   12417.2       0.0       0.0
 ORCD  HRU    188 Rot   1     0.0   14555.2       0.0    8332.3       0.0       0.0
 ORCD  HRU    189 Rot   1     0.0   14266.8       0.0    8307.9       0.0       0.0
 FRST  HRU    190 Rot   1     0.0   16782.2       0.0   12780.2       0.0       0.0
 ORCD  HRU    191 Rot   1     0.0   14867.1       0.0    8437.9       0.0       0.0
 ORCD  HRU    192 Rot   1     0.0   14719.4       0.0    8416.3       0.0       0.0
 FRST  HRU    193 Rot   1     0.0   16645.5       0.0   12525.0       0.0       0.0
 ORCD  HRU    194 Rot   1     0.0   14520.8       0.0    8254.3       0.0       0.0
 ORCD  HRU    195 Rot   1     0.0   14944.8       0.0    8261.7       0.0       0.0
 ORCD  HRU    196 Rot   1     0.0   14241.3       0.0    8234.7       0.0       0.0
 RICE  HRU    197 Rot   1     0.0       0.0    2294.2    6144.8       0.0       0.0
 RICE  HRU    198 Rot   1     0.0       0.0    2336.8    6260.7       0.0       0.0
 RICE  HRU    199 Rot   1     0.0       0.0    2299.2    6105.3       0.0       0.0
 RICE  HRU    200 Rot   1     0.0       0.0    2243.8    6004.2       0.0       0.0
 FRST  HRU    201 Rot   1     0.0   16731.8       0.0   12734.6       0.0       0.0
 FRST  HRU    202 Rot   1     0.0   19777.9       0.0   12859.0       0.0       0.0
 FRST  HRU    203 Rot   1     0.0   16273.7       0.0   12661.9       0.0       0.0
 ORCD  HRU    204 Rot   1     0.0   15185.7       0.0    8445.8       0.0       0.0
 ORCD  HRU    205 Rot   1     0.0   14976.5       0.0    8432.3       0.0       0.0
 BERM  HRU    206 Rot   1     0.0       0.0   19068.5   27329.0       0.0       0.0
 BERM  HRU    207 Rot   1     0.0       0.0   18869.0   27043.3       0.0       0.0
 BERM  HRU    208 Rot   1     0.0       0.0   20396.2   29241.8       0.0       0.0
 BERM  HRU    209 Rot   1     0.0       0.0   20250.9   29033.3       0.0       0.0
 BERM  HRU    210 Rot   1     0.0       0.0   19131.7   27411.4       0.0       0.0
 BERM  HRU    211 Rot   1     0.0       0.0   19146.2   27432.6       0.0       0.0
 FRST  HRU    212 Rot   1     0.0   16074.9       0.0   12375.7       0.0       0.0
 FRST  HRU    213 Rot   1     0.0   18576.7       0.0   12345.7       0.0       0.0
 ORCD  HRU    214 Rot   1     0.0   14059.5       0.0    8294.2       0.0       0.0
 ORCD  HRU    215 Rot   1     0.0   14047.9       0.0    8266.8       0.0       0.0
 RICE  HRU    216 Rot   1     0.0       0.0    2156.2    5845.4       0.0       0.0
 RICE  HRU    217 Rot   1     0.0       0.0    2113.1    5727.8       0.0       0.0
 FRST  HRU    218 Rot   1     0.0   18575.6       0.0   12343.8       0.0       0.0
 ORCD  HRU    219 Rot   1     0.0   14054.5       0.0    8293.9       0.0       0.0
 ORCD  HRU    220 Rot   1     0.0   14188.0       0.0    8274.9       0.0       0.0
 RICE  HRU    221 Rot   1     0.0       0.0    2028.5    5525.3       0.0       0.0
 RICE  HRU    222 Rot   1     0.0       0.0    2037.3    5549.9       0.0       0.0
 RICE  HRU    223 Rot   1     0.0       0.0    1976.4    5367.4       0.0       0.0
 RICE  HRU    224 Rot   1     0.0       0.0    1959.8    5319.1       0.0       0.0
 RICE  HRU    225 Rot   1     0.0       0.0    2002.3    5437.8       0.0       0.0
 RICE  HRU    226 Rot   1     0.0       0.0    1997.0    5424.9       0.0       0.0
 FRST  HRU    227 Rot   1     0.0   16241.0       0.0   12296.4       0.0       0.0
 ORCD  HRU    228 Rot   1     0.0   14265.6       0.0    8071.4       0.0       0.0
 ORCD  HRU    229 Rot   1     0.0   14470.0       0.0    8086.4       0.0       0.0
 ORCD  HRU    230 Rot   1     0.0   13540.0       0.0    8048.4       0.0       0.0
 BERM  HRU    231 Rot   1     0.0       0.0   17791.1   25486.5       0.0       0.0
 BERM  HRU    232 Rot   1     0.0       0.0   17700.7   25357.1       0.0       0.0
 BERM  HRU    233 Rot   1     0.0       0.0   18643.3   26706.8       0.0       0.0
 BERM  HRU    234 Rot   1     0.0       0.0   18649.8   26716.0       0.0       0.0
 WWHT  HRU    235 Rot   1     0.0       0.0    3250.2   10497.4       0.0       0.0
 WWHT  HRU    236 Rot   1     0.0       0.0    3267.7   10553.9       0.0       0.0
 FRST  HRU    237 Rot   1     0.0   16918.7       0.0   12869.8       0.0       0.0
 FRST  HRU    238 Rot   1     0.0   19670.3       0.0   12930.8       0.0       0.0
 ORCD  HRU    239 Rot   1     0.0   14930.8       0.0    8678.9       0.0       0.0
 FRST  HRU    240 Rot   1     0.0   16682.7       0.0   12524.4       0.0       0.0
 FRST  HRU    241 Rot   1     0.0   19381.9       0.0   12477.9       0.0       0.0
 FRST  HRU    242 Rot   1     0.0   16131.9       0.0   12429.9       0.0       0.0
 ORCD  HRU    243 Rot   1     0.0   14507.7       0.0    8253.6       0.0       0.0
 ORCD  HRU    244 Rot   1     0.0   14426.9       0.0    8239.3       0.0       0.0
 ORCD  HRU    245 Rot   1     0.0   14168.6       0.0    8233.7       0.0       0.0
 BERM  HRU    246 Rot   1     0.0       0.0   18521.9   26547.2       0.0       0.0
 BERM  HRU    247 Rot   1     0.0       0.0   18932.9   27130.5       0.0       0.0
 RICE  HRU    248 Rot   1     0.0       0.0    1980.3    5374.4       0.0       0.0
 RICE  HRU    249 Rot   1     0.0       0.0    1998.6    5427.6       0.0       0.0
 RICE  HRU    250 Rot   1     0.0       0.0    1999.9    5431.5       0.0       0.0
 FRST  HRU    251 Rot   1     0.0   19055.0       0.0   12370.7       0.0       0.0
 FRST  HRU    252 Rot   1     0.0   15676.5       0.0   12236.2       0.0       0.0
 ORCD  HRU    253 Rot   1     0.0   14467.9       0.0    8086.2       0.0       0.0
 ORCD  HRU    254 Rot   1     0.0   13543.9       0.0    8048.0       0.0       0.0
 BERM  HRU    255 Rot   1     0.0       0.0   19224.6   27546.9       0.0       0.0
 BERM  HRU    256 Rot   1     0.0       0.0   19143.9   27431.2       0.0       0.0
 BERM  HRU    257 Rot   1     0.0       0.0   18413.9   26368.1       0.0       0.0
 BERM  HRU    258 Rot   1     0.0       0.0   18640.5   26702.6       0.0       0.0
 BERM  HRU    259 Rot   1     0.0       0.0   18638.8   26700.2       0.0       0.0
 RICE  HRU    260 Rot   1     0.0       0.0    2449.8    6446.9       0.0       0.0
 FRST  HRU    261 Rot   1     0.0   17217.0       0.0   12646.8       0.0       0.0
 ORCD  HRU    262 Rot   1     0.0   14697.0       0.0    8519.1       0.0       0.0
 FRST  HRU    263 Rot   1     0.0   17209.1       0.0   12646.9       0.0       0.0
 FRST  HRU    264 Rot   1     0.0   19839.3       0.0   12769.6       0.0       0.0
 FRST  HRU    265 Rot   1     0.0   16769.6       0.0   12571.6       0.0       0.0
 ORCD  HRU    266 Rot   1     0.0   14674.9       0.0    8520.4       0.0       0.0
 ORCD  HRU    267 Rot   1     0.0   13999.8       0.0    8503.5       0.0       0.0
 FRST  HRU    268 Rot   1     0.0   17259.5       0.0   12665.2       0.0       0.0
 FRST  HRU    269 Rot   1     0.0   18735.9       0.0   12749.7       0.0       0.0
 FRST  HRU    270 Rot   1     0.0   19837.8       0.0   12768.8       0.0       0.0
 RICE  HRU    271 Rot   1     0.0       0.0    2346.4    6172.6       0.0       0.0
 RICE  HRU    272 Rot   1     0.0       0.0    2351.5    6186.4       0.0       0.0
 RICE  HRU    273 Rot   1     0.0       0.0    2376.3    6254.1       0.0       0.0
 RICE  HRU    274 Rot   1     0.0       0.0    2362.9    6218.4       0.0       0.0
 FRST  HRU    275 Rot   1     0.0   17184.2       0.0   12635.9       0.0       0.0
 FRST  HRU    276 Rot   1     0.0   19834.0       0.0   12767.4       0.0       0.0
 ORCD  HRU    277 Rot   1     0.0   14712.6       0.0    8519.0       0.0       0.0
 ORCD  HRU    278 Rot   1     0.0   15076.8       0.0    8527.6       0.0       0.0
 BERM  HRU    279 Rot   1     0.0       0.0   20021.6   28700.8       0.0       0.0
 BERM  HRU    280 Rot   1     0.0       0.0   19326.0   27687.5       0.0       0.0
 BERM  HRU    281 Rot   1     0.0       0.0   19318.7   27676.9       0.0       0.0
 RICE  HRU    282 Rot   1     0.0       0.0    2125.1    5813.9       0.0       0.0
 FRST  HRU    283 Rot   1     0.0   16255.9       0.0   12343.1       0.0       0.0
 FRST  HRU    284 Rot   1     0.0   18909.1       0.0   12389.6       0.0       0.0
 ORCD  HRU    285 Rot   1     0.0   14226.4       0.0    8052.4       0.0       0.0
 ORCD  HRU    286 Rot   1     0.0   14336.6       0.0    8036.9       0.0       0.0
 RICE  HRU    287 Rot   1     0.0       0.0    2108.9    5746.3       0.0       0.0
 RICE  HRU    288 Rot   1     0.0       0.0    2121.0    5799.3       0.0       0.0
 RICE  HRU    289 Rot   1     0.0       0.0    2105.0    5754.6       0.0       0.0
 FRST  HRU    290 Rot   1     0.0   16261.6       0.0   12343.1       0.0       0.0
 FRST  HRU    291 Rot   1     0.0   18905.2       0.0   12389.1       0.0       0.0
 ORCD  HRU    292 Rot   1     0.0   14193.5       0.0    8052.2       0.0       0.0
 ORCD  HRU    293 Rot   1     0.0   14304.3       0.0    8036.8       0.0       0.0
 BERM  HRU    294 Rot   1     0.0       0.0   18782.3   26913.6       0.0       0.0
 BERM  HRU    295 Rot   1     0.0       0.0   18851.7   27014.8       0.0       0.0
 BERM  HRU    296 Rot   1     0.0       0.0   18817.0   26961.8       0.0       0.0
 BERM  HRU    297 Rot   1     0.0       0.0   18817.9   26963.0       0.0       0.0
 RICE  HRU    298 Rot   1     0.0       0.0    2312.9    6177.4       0.0       0.0
 RICE  HRU    299 Rot   1     0.0       0.0    2233.7    5960.2       0.0       0.0
 RICE  HRU    300 Rot   1     0.0       0.0    2248.3    5999.5       0.0       0.0
 RICE  HRU    301 Rot   1     0.0       0.0    2245.3    5991.3       0.0       0.0
 FRST  HRU    302 Rot   1     0.0   16675.3       0.0   12525.1       0.0       0.0
 FRST  HRU    303 Rot   1     0.0   19442.3       0.0   12536.7       0.0       0.0
 ORCD  HRU    304 Rot   1     0.0   14535.4       0.0    8254.2       0.0       0.0
 ORCD  HRU    305 Rot   1     0.0   14944.8       0.0    8261.7       0.0       0.0
 ORCD  HRU    306 Rot   1     0.0   14235.5       0.0    8234.7       0.0       0.0
 BERM  HRU    307 Rot   1     0.0       0.0   18613.6   26678.4       0.0       0.0
 BERM  HRU    308 Rot   1     0.0       0.0   18802.5   26948.6       0.0       0.0
 BERM  HRU    309 Rot   1     0.0       0.0   19003.6   27229.7       0.0       0.0
 BERM  HRU    310 Rot   1     0.0       0.0   19317.3   27682.9       0.0       0.0
 BERM  HRU    311 Rot   1     0.0       0.0   19316.3   27681.5       0.0       0.0
 RICE  HRU    312 Rot   1     0.0       0.0    2182.6    5819.5       0.0       0.0
 RICE  HRU    313 Rot   1     0.0       0.0    2239.1    5972.4       0.0       0.0
 RICE  HRU    314 Rot   1     0.0       0.0    2247.6    5996.6       0.0       0.0
 FRST  HRU    315 Rot   1     0.0   16675.9       0.0   12524.9       0.0       0.0
 FRST  HRU    316 Rot   1     0.0   19384.0       0.0   12482.7       0.0       0.0
 ORCD  HRU    317 Rot   1     0.0   14529.6       0.0    8253.9       0.0       0.0
 ORCD  HRU    318 Rot   1     0.0   14250.9       0.0    8234.2       0.0       0.0
 FRST  HRU    319 Rot   1     0.0   16900.5       0.0   12867.3       0.0       0.0
 ORCD  HRU    320 Rot   1     0.0   13802.5       0.0    8606.2       0.0       0.0
 ORCD  HRU    321 Rot   1     0.0   14656.7       0.0    8668.9       0.0       0.0
 WWHT  HRU    322 Rot   1     0.0       0.0    3340.6   10789.4       0.0       0.0
 WWHT  HRU    323 Rot   1     0.0       0.0    3360.7   10854.3       0.0       0.0
 WWHT  HRU    324 Rot   1     0.0       0.0    3340.7   10789.9       0.0       0.0
 WWHT  HRU    325 Rot   1     0.0       0.0    3400.6   10983.4       0.0       0.0
 FRST  HRU    326 Rot   1     0.0   16902.6       0.0   12478.7       0.0       0.0
[...]
   808  92 FRSTQSH     .101E+01   58.00  249.80    3.52    0.00    0.00    0.00    0.20 1022.00   93.11  203.27  464.36    0.07    0.61    0.01   17.18    0.00
   809  92 ORCDQSH     .993E+00   77.00  249.80    3.47    0.00  164.71    0.00    0.20 1022.00  148.24   66.39  705.08    0.11    5.77    0.02   15.31    0.00
   810  92 BERMQSH     .125E+01   91.18  249.80    0.07    0.00  300.00    0.00    0.20 1022.00  400.52    0.00  605.99    0.08    4.96    0.34   29.77   20.76
   811  92 BERMQSH     .993E+00   91.18  249.80    2.68    0.00  300.00    0.00    0.20 1022.00  391.61   25.61  599.44    5.30    6.32    1.19   29.72   20.73
   812  92 BERMZSDT    .921E+00   95.52  204.30    0.07    0.00  300.00    0.00    0.20 1022.00  477.34    0.00  528.55    0.06    6.55    0.39   28.13   19.63
   813  92 WATRQSH     .416E+00   92.00  249.80    0.07    0.00    0.00    0.00    0.20 1022.00    0.00    0.00 1252.94    0.00    0.00    0.00    0.00    0.00
   814  92 WATRZSDT    .798E-01   92.00  204.30    1.44    0.00    0.00    0.00    0.20 1022.00    0.00    0.00 1252.94    0.00    0.00    0.00    0.00    0.00
   815  92 WATRZSDT    .483E-01   92.00  204.30    0.20    0.00    0.00    0.00    0.20 1022.00    0.00    0.00 1252.94    0.00    0.00    0.00    0.00    0.00
   816  93 RICECST     .293E+00   63.00  139.20    0.07    0.00   88.52    0.00    0.20  976.00   93.98   41.68  583.68    0.01    0.21    0.00    5.91    2.24
   817  93 RICECST     .209E+00   63.00  139.20    3.06    0.00   67.58    0.00    0.20  976.00   81.87  198.95  569.76    2.50    5.22    0.37    5.92    2.24
   818  93 RICEZSDT    .400E+00   74.00  204.30    2.41    0.00   67.58    0.00    0.20  976.00   95.86   22.04  699.16    0.23    2.13    0.06    5.89    2.23
   819  93 RICEZSDT    .255E+00   74.00  204.30    0.07    0.00   69.79    0.00    0.20  976.00   97.08    5.70  699.64    0.00    1.28    0.00    5.89    2.23
   820  93 FRSTCST     .192E+01   45.00  139.20    3.90    0.00    0.00    0.00    0.20  976.00   28.31  408.04  424.00    0.02    0.86    0.00   16.54    0.00
   821  93 ORCDCST     .117E+00   66.00  139.20    3.86    0.00  179.55   25.65    0.20  976.00   87.23  181.32  631.87    0.07   17.42    0.01   15.11    0.00
   822  93 ORCDCST     .562E-01   66.00  139.20    0.07    0.00  187.61   26.80    0.20  976.00  102.41   16.68  643.19    0.00    0.24    0.00   15.14    0.00
   823  93 ORCDZSDT    .654E+00   83.00  204.30    2.96    0.00  174.10    0.00    0.20  976.00  159.47   26.09  731.72    0.01    4.39    0.00   15.22    0.00
   824  93 BERMCST     .283E+00   83.12  139.20    0.07    0.00  300.00    0.00    0.20  976.00  368.90    0.06  577.34    0.08    3.86    0.69   27.23   19.00
   825  93 BERMCST     .350E+00   83.12  139.20    2.66    0.00  300.00    0.00    0.20  976.00  340.61   70.12  554.22    3.10    6.63    1.22   27.02   18.86
   826  93 BERMZSDT    .412E+00   95.52  204.30    2.36    0.00  300.00    0.00    0.20  976.00  483.81    4.47  478.24    0.60    6.80    0.76   24.78   17.31
   827  93 BERMZSDT    .125E+00   95.52  204.30    0.08    0.00  300.00    0.00    0.20  976.00  479.69    0.01  482.39    0.06    6.77    1.07   24.97   17.45
   828  93 WATRCST     .498E+00   92.00  139.20    0.07    0.00    0.00    0.00    0.20  976.00    0.00    0.00 1252.92    0.00    0.00    0.00    0.00    0.00
   829  94 RICECST     .730E+00   63.00  139.20    2.39    0.00   86.74    0.00    0.20 1022.00   71.18  124.23  602.11    2.90    3.41    0.44    6.11    2.31
   830  94 RICECST     .336E+00   63.00  139.20    0.08    0.00   98.81    0.00    0.20 1022.00   75.17   65.72  608.27    0.03    0.45    0.01    6.21    2.34
   831  94 RICEZSDT    .671E+00   74.00  204.30    1.13    0.00   84.66    0.00    0.20 1022.00   99.04   16.24  714.16    0.14    0.47    0.04    6.16    2.33
   832  94 RICEZSDT    .191E+01   74.00  204.30    0.07    0.00   84.66    0.00    0.20 1022.00  100.01   14.27  714.25    0.00    0.24    0.00    6.16    2.33
   833  94 FRSTCST     .709E+01   45.00  139.20    3.60    0.00    0.00    0.00    0.20 1022.00   22.70  426.41  438.21    0.02    0.92    0.00   16.87    0.00
   834  94 FRSTQSH     .979E+01   58.00  249.80    4.32    0.00    0.00    0.00    0.20 1022.00   91.33  214.78  464.57    0.10    0.64    0.02   17.21    0.00
   835  94 ORCDQSH     .218E+01   77.00  249.80    3.52    0.00  164.71    0.00    0.20 1022.00  147.78   66.88  705.98    0.12    5.81    0.02   15.31    0.00
   836  94 BERMSSDT    .396E+01   91.18  184.80    0.07    0.00  300.00    0.00    0.20 1022.00  380.21    0.02  618.35    0.06    4.28    0.18   28.86   20.13
   837  94 BERMSSDT    .348E+01   91.18  184.80    2.69    0.00  300.00    0.00    0.20 1022.00  380.35    5.12  616.70    0.45    4.54    0.32   28.89   20.15
   838  94 BERMZSDT    .204E+01   95.52  204.30    1.65    0.00  300.00    0.00    0.20 1022.00  481.30    2.84  527.17    0.51    6.67    0.41   28.01   19.54
   839  94 BERMZSDT    .432E+01   95.52  204.30    0.07    0.00  300.00    0.00    0.20 1022.00  477.06    0.00  528.84    0.06    6.45    0.17   28.10   19.61
   840  95 RICEZSDT    .268E+01   73.00  204.30    2.48    0.00   63.71    0.00    0.20 1184.00  127.98   97.22  715.75    0.35    1.86    0.10    5.85    2.13
   841  95 RICEZSDT    .237E+01   73.00  204.30    0.07    0.00   63.71    0.00    0.20 1184.00  129.01   92.53  715.99    0.00    1.40    0.00    5.83    2.13
   842  95 FRSTCGT     .876E+01   44.00  104.00    9.34    0.00    0.00    0.00    0.20 1184.00   15.00  688.89  416.16    0.04    2.60    0.13   18.53    0.00
   843  95 FRSTCST     .758E+01   44.00  139.20    3.92    0.00    0.00    0.00    0.20 1184.00   23.36  533.09  447.47    0.02    1.02    0.00   16.25    0.00
   844  95 ORCDQSH     .422E+01   76.00  249.80    2.99    0.00  179.16    0.00    0.20 1184.00  211.07  101.01  673.27    0.18    6.56    0.03   15.03    0.00
   845  95 ORCDSSDT    .446E+01   76.00  184.80    3.37    0.00  184.73   26.39    0.20 1184.00  172.89  163.14  658.27    0.02   13.52    0.00   14.98    0.00
   846  95 ORCDZSDT    .102E+01   82.00  204.30    0.07    0.00  183.82   26.26    0.20 1184.00  236.17   35.41  705.84    0.00    0.62    0.00   15.03    0.00
   847  95 ORCDZSDT    .309E+01   82.00  204.30    2.89    0.00  182.98   26.14    0.20 1184.00  231.28   60.74  704.85    0.02    5.77    0.00   15.03    0.00
   848  95 BERMZSDT    .319E+01   94.90  204.30    2.12    0.00  300.00    0.00    0.20 1184.00  601.62    5.23  568.35    0.53    5.50    0.42   26.38   18.42
   849  95 BERMZSDT    .314E+01   94.90  204.30    0.07    0.00  300.00    0.00    0.20 1184.00  599.81    0.01  569.40    0.07    5.28    0.25   26.39   18.43
   850  96 RICELGH     .852E+01   63.00  423.60    3.83    0.00   43.14    0.00    0.20 1082.50   52.77  182.63  636.11    2.74    2.48   17.98    5.59    2.09
   851  96 RICELGH     .279E+01   63.00  423.60    0.07    0.00   45.43    0.00    0.20 1082.50   66.85  104.83  642.74    0.02    0.14    0.18    5.54    2.08
   852  96 RICESSDT    .854E+01   71.00  184.80    0.08    0.00   65.53    0.00    0.20 1082.50  129.16   51.53  654.62    0.01    0.47    0.00    5.36    1.99
   853  96 RICESSDT    .129E+02   71.00  184.80    2.99    0.00   61.82    0.00    0.20 1082.50  115.64  107.65  649.76    0.58    2.28    0.14    5.50    2.05
   854  96 FRSTLGH     .106E+03   45.00  423.60    6.34    0.00    0.00    0.00    0.20 1082.50   24.61  362.01  456.64    0.04    1.60    0.50   19.43    0.00
   855  96 ORCDCST     .512E+01   66.00  139.20    3.48    0.00  176.00    0.00    0.20 1082.50   65.87  321.13  630.54    0.05   26.91    0.01   14.43    0.00
   856  96 ORCDSSDT    .916E+01   77.00  184.80    3.48    0.00  179.41   25.63    0.20 1082.50  131.52  129.24  681.69    0.02   12.25    0.00   14.87    0.00
   857  96 BERMSSDT    .808E+01   91.18  184.80    0.08    0.00  300.00    0.00    0.20 1082.50  413.89    0.04  629.29    0.06    3.67    0.14   26.89   18.76
   858  96 BERMSSDT    .105E+02   91.18  184.80    2.63    0.00  300.00    0.00    0.20 1082.50  404.47   26.67  623.32    0.44    5.27    0.24   26.83   18.72
   859  97 RICEQSH     .149E+01   70.00  249.80    3.25    0.00   71.82    0.00    0.20 1498.50  321.10  241.50  642.49   12.97    3.84    2.03    5.52    1.92
   860  97 RICEQSH     .394E+00   70.00  249.80    0.08    0.00   88.52    0.00    0.20 1498.50  336.99  181.24  645.59    0.11    0.79    0.03    5.47    1.91
   861  97 RICESSDT    .517E+00   70.00  184.80    0.07    0.00  198.28    0.00    0.20 1498.50  310.96  192.63  651.53    0.01    0.75    0.00    5.57    1.93
   862  97 RICESSDT    .154E+01   70.00  184.80    3.80    0.00   94.96    0.00    0.20 1498.50  293.52  260.29  648.72    1.36    4.64    0.36    5.44    1.89
   863  97 RICEZSDT    .173E+01   73.00  204.30    0.07    0.00  112.67    0.00    0.20 1498.50  317.81  170.70  696.97    0.01    0.74    0.00    5.52    1.92
   864  97 RICEZSDT    .215E+01   73.00  204.30    2.02    0.00  109.02    0.00    0.20 1498.50  314.42  187.10  696.69    0.75    2.17    0.21    5.49    1.91
   865  97 FRSTQSH     .353E+02   57.00  249.80    5.03    0.00    0.00    0.00    0.20 1498.50  220.02  479.06  471.63    0.30    1.32    0.06   16.66    0.00
   866  97 ORCDSSDT    .821E+01   76.00  184.80    3.94    0.00  179.93   25.70    0.20 1498.50  359.95  251.73  648.17    0.05   15.12    0.01   14.70    0.00
   867  98 RICESSDT    .136E+01   71.00  184.80    0.08    0.00  190.84    0.00    0.20 1619.50  481.59  146.69  650.73    0.02    1.12    0.00    5.68    2.00
   868  98 RICESSDT    .482E+01   71.00  184.80    3.06    0.00  184.27    0.00    0.20 1619.50  464.63  201.02  646.72    2.21    7.57    0.47    5.80    2.04
   869  98 RICEZSDT    .467E+01   74.00  204.30    2.68    0.00  206.63    0.00    0.20 1619.50  482.67  141.87  691.53    1.99    5.09    0.47    5.81    2.05
   870  98 RICEZSDT    .371E+01   74.00  204.30    0.07    0.00  208.69    0.00    0.20 1619.50  489.07  119.34  692.98    0.02    1.23    0.00    5.78    2.03
   871  98 FRSTCST     .441E+02   45.00  139.20    4.32    0.00    0.00    0.00    0.20 1619.50  165.55  779.05  442.17    0.20    2.03    0.04   16.34    0.00
   872  98 FRSTGLH     .530E+02   64.00  222.90    7.03    0.00    0.00    0.00    0.20 1619.50  413.79  437.03  488.18    0.85    2.18    0.16   16.49    0.00
   873  98 ORCDCST     .869E+01   66.00  139.20    2.97    0.00  179.41    0.00    0.20 1619.50  342.12  458.67  649.14    0.31   29.24    0.05   14.74    0.00
   874  98 ORCDGLH     .928E+01   83.00  222.90    4.08    0.00  164.71    0.00    0.20 1619.50  601.68  160.95  710.76    0.87   21.16    0.14   14.68    0.00
   875  98 ORCDSSDT    .109E+02   77.00  184.80    3.73    0.00  182.98   26.14    0.20 1619.50  515.19  149.70  688.62    0.06    8.34    0.01   14.77    0.00
   876  98 BERMCST     .221E+01   83.12  139.20    2.68    0.00  300.00    0.00    0.20 1619.50  801.49  114.94  601.87    5.92    8.38    1.49   28.05   19.57
   877  98 BERMCST     .146E+01   83.12  139.20    0.07    0.00  300.00    0.00    0.20 1619.50  820.88    0.12  614.17    0.15    4.65    0.46   28.16   19.64
   878  98 BERMZSDT    .414E+01   95.52  204.30    3.05    0.00  300.00    0.00    0.20 1619.50  995.05    8.38  599.14    1.38    7.22    0.66   28.16   19.64
   879  98 BERMZSDT    .240E+01   95.52  204.30    0.07    0.00  300.00    0.00    0.20 1619.50  995.50    0.00  601.74    0.10    6.86    0.34   28.22   19.68
   880  99 FRSTGLH     .359E+02   63.00  222.90    5.92    0.00    0.00    0.00    0.20 1498.50  265.63  471.98  491.55    0.47    1.77    0.09   16.57    0.00
   881  99 FRSTQSH     .289E+02   57.00  249.80    7.52    0.00    0.00    0.00    0.20 1498.50  211.93  513.55  470.99    0.48    1.47    0.09   16.72    0.00
   882  99 ORCDGLH     .933E+01   82.00  222.90    3.71    0.00  170.11    0.00    0.20 1498.50  479.38  183.36  667.98    0.59   22.47    0.09   14.54    0.00
   883  99 ORCDHHR     .108E+02   76.00  189.85    4.23    0.00    0.00    0.00    0.20 1498.50  348.53  238.92  674.05    0.50    2.99    6.00   14.73    0.00
   884  99 ORCDSSDT    .912E+01   76.00  184.80    4.14    0.00  179.93   25.70    0.20 1498.50  359.16  254.56  648.70    0.05   15.47    0.01   14.71    0.00
   885  99 BERMZSDT    .419E+01   94.90  204.30    3.02    0.00  300.00    0.00    0.20 1498.50  874.28   10.85  592.19    1.12    7.13    0.59   27.73   19.35
   886  99 BERMZSDT    .311E+01   94.90  204.30    0.07    0.00  300.00    0.00    0.20 1498.50  876.14    0.01  595.00    0.09    6.79    0.29   27.71   19.34



                AVE MONTHLY BASIN VALUES
                   SNOW                      WATER               SED
  MON     RAIN     FALL   SURF Q    LAT Q    YIELD       ET    YIELD      PET
          (MM)     (MM)     (MM)     (MM)     (MM)     (MM)   (T/HA)     (MM)
    1    12.56     0.00     0.08     1.03     1.11    15.24     0.00    28.01
    2     9.63     0.00     0.06     0.80     0.84    21.02     0.00    37.00
    3   128.36     0.00     4.34    18.57    22.75    39.81     0.06    44.97
    4   109.07     0.00     9.08    23.61    32.46    51.56     0.03    57.36
    5   115.11     0.00     9.93    23.68    33.75    65.07     0.03    79.96
    6   247.32     0.00    41.35    56.98    99.75    70.08     0.08    77.20
    7   175.31     0.00    40.93    49.65    99.78    85.41     0.09   123.12
    8   262.58     0.00    49.48    56.89   117.60    78.25     0.10   111.43
    9    64.38     0.00     3.73    17.84    26.98    57.99     0.01    98.01
   10     2.40     0.00     0.17     4.36     5.72    34.62     0.00    74.36
   11    61.23     0.00     1.60    10.14    11.83    21.41     0.01    38.50
   12    53.47     0.00     0.93     8.55     9.59    18.79     0.00    27.45

     AVE ANNUAL BASIN STRESS DAYS
               WATER STRESS DAYS =     2.79
               TEMPERATURE STRESS DAYS =    42.84
               NITROGEN STRESS DAYS =    30.66
               PHOSPHORUS STRESS DAYS =    31.00
1
    SWAT Aug 23 2011    VER 2009/Rev. 488                                           

    General Input/Output section (file.cio):                                        
    2013/12/18 0:00:00 ARCGIS-SWAT interface AV                                     
                                                                                    
         AVE ANNUAL BASIN VALUES

              PRECIP =   1241.1 MM
              SNOW FALL =    0.00 MM
              SNOW MELT =     0.00 MM
              SUBLIMATION =     0.00 MM
              SURFACE RUNOFF Q =   161.68 MM
              LATERAL SOIL Q =  272.05 MM
              TILE Q =     0.00 MM
              GROUNDWATER (SHAL AQ) Q =    30.03 MM
              REVAP (SHAL AQ => SOIL/PLANTS) =  123.02 MM
              DEEP AQ RECHARGE =    62.65 MM
              TOTAL AQ RECHARGE =  208.83 MM
              TOTAL WATER YLD =   462.14 MM
              PERCOLATION OUT OF SOIL =  209.10 MM
              ET =    558.5 MM
              PET =    796.1MM
              TRANSMISSION LOSSES =     1.63 MM
              SEPTIC INFLOW =       0.00 MM
              TOTAL SEDIMENT LOADING =     0.406 T/HA
              POND BUDGET
                   EVAPORATION =    0.000 MM
                   SEEPAGE =    0.000 MM
                   RAINFALL ON POOL =   0.000 MM
                   INFLOW
                        WATER =    0.000 MM
                        SEDIMENT =    0.000 T/HA
                   OUTFLOW
                        WATER =    0.000 MM
                        SEDIMENT =    0.000 T/HA
              RESERVOIR BUDGET
                   EVAPORATION =    0.196 MM
                   SEEPAGE =    0.000 MM
                   RAINFALL ON RESERVOIR =    0.343 MM
                   INFLOW
                        WATER =  143.988 MM
                        SEDIMENT =    0.105 T/HA
                   OUTFLOW
                        WATER =  144.134 MM
                        SEDIMENT =    0.009 T/HA
              YIELD LOSS FROM PONDS
                   WATER =   0.000 MM
                   SEDIMENT =   0.000 T/HA
              YIELD LOSS FROM RESERVOIRS
                   WATER =  -0.146 MM
                   SEDIMENT =   0.096 T/HA
1
    SWAT Aug 23 2011    VER 2009/Rev. 488                                           

    General Input/Output section (file.cio):                                        
    2013/12/18 0:00:00 ARCGIS-SWAT interface AV                                     
                                                                                    
              AVE ANNUAL BASIN VALUES


              NUTRIENTS
                   ORGANIC N =     0.704 (KG/HA)
                   ORGANIC P =     0.094 (KG/HA)
                   NO3 YIELD (SQ) =     0.680 (KG/HA)
                   NO3 YIELD (SSQ) =    4.322 (KG/HA)
                   SOL P YIELD =    0.032 (KG/HA)
                   NO3 LEACHED =    27.547 (KG/HA)
                   P LEACHED =     0.127 (KG/HA)
                   N UPTAKE =    42.745 (KG/HA)
                   P UPTAKE =    7.571 (KG/HA)
                   NO3 YIELD (GWQ) =     2.444 (KG/HA)
                   ACTIVE TO SOLUTION P FLOW =        -1.118 (KG/HA)
                   ACTIVE TO STABLE P FLOW =         0.726 (KG/HA)
                   N FERTILIZER APPLIED =    63.092 (KG/HA)
                   P FERTILIZER APPLIED =     0.000 (KG/HA)
                   N FIXATION =     0.000 (KG/HA)
                   DENITRIFICATION =     0.000 (KG/HA)
                   HUMUS MIN ON ACTIVE ORG N =     7.199 (KG/HA)
                   ACTIVE TO STABLE ORG N =    -1.347 (KG/HA)
                   HUMUS MIN ON ACTIVE ORG P =    1.235 (KG/HA)
                   MIN FROM FRESH ORG N =   11.462 (KG/HA)
                   MIN FROM FRESH ORG P =    1.983 (KG/HA)
                   NO3 IN RAINFALL =    11.198 (KG/HA)
                   INITIAL NO3 IN SOIL =      51.480 (KG/HA)
                   FINAL NO3 IN SOIL =        15.516 (KG/HA)
                   INITIAL ORG N IN SOIL =    5610.777 (KG/HA)
                   FINAL ORG N IN SOIL =      5596.335 (KG/HA)
                   INITIAL MIN P IN SOIL =     605.885 (KG/HA)
                   FINAL MIN P IN SOIL =       598.124 (KG/HA)
                   INITIAL ORG P IN SOIL =     687.321 (KG/HA)
                   FINAL ORG P IN SOIL =     685.384 (KG/HA)
                   NO3 IN FERT =    63.092 (KG/HA)
                   AMMONIA IN FERT =     0.000 (KG/HA)
                   ORG N IN FERT =     0.000 (KG/HA)
                   MINERAL P IN FERT =     2.445 (KG/HA)
                   ORG P IN FERT =     0.000 (KG/HA)
                   N REMOVED IN YIELD =    22.412 (KG/HA)
                   P REMOVED IN YIELD =     3.132 (KG/HA)
                   AMMONIA VOLATILIZATION =     0.000 (KG/HA)
                   AMMONIA NITRIFICATION =      0.000 (KG/HA)
                   NO3 EVAP-LAYER 2 TO 1 =    9.357

                   DIE-GRO P Q =       0.0 (No/HA)
                   DIE-GRO LP Q =       0.0 (No/HA)
                   DIE-GRO P SED =      0.0 (No/HA)
                   DIE-GRO LP SED =      0.0 (No/HA)
                   BACT P RUNOFF =      0.0 (No/HA)
                   BACT LP RUNOFF =      0.0 (No/HA)
                   BACT P SEDIMENT =      0.0 (No/HA)
                   BACT LP SEDIMENT =      0.0 (No/HA)
                   BACT P INCORP =      0.0 (No/HA)
                   BACT LP INCORP =      0.0 (No/HA)

                   NITRATE SEPTIC =         0.00 (kg/ha)
                   AMMONIA SEPTIC =         0.00 (kg/ha)
                   ORG N SEPTIC =         0.00 (kg/ha)
                   FRESH ORGN SEPTIC =         0.00 (kg/ha)
                   ORG P SEPTIC =         0.00 (kg/ha)
                   FRESH ORGP SEPTIC =         0.00 (kg/ha)
                   SOL P SEPTIC =         0.00 (kg/ha)
                   BOD SEPTIC =         0.00 (kg/ha)
