1
    SWAT Jun 01 2011    VER 2009/Rev. 481                                                                0/ 0/   0      0: 0: 0

    General Input/Output section (file.cio):                                        
    2013/12/18 0:00:00 ARCGIS-SWAT interface AV                                     
                                                                                    


LULC HRU      GIS  SUB  MGT  MON   AREAkm2  PRECIPmm
RICE   1000010001    1    0    1.26466E+01   100.700
RICE   1000010001    1    0    2.26466E+01    62.900
RICE   1000010001    1    0    3.26466E+01   149.600
RICE   1000010001    1    0    4.26466E+01   245.400
RICE   1000010001    1    0    5.26466E+01   129.900
RICE   1000010001    1    0    6.26466E+01   274.600
RICE   1000010001    1    0    7.26466E+01   288.100
RICE   1000010001    1    0    8.26466E+01   207.200
RICE   1000010001    1    0    9.26466E+01   130.400
RICE   1000010001    1    0   10.26466E+01     3.400
RICE   1000010001    1    0   11.26466E+01     5.100
RICE   1000010001    1    0   12.26466E+01    29.600
RICE   1000010001    1    0 2001.26466E+01  1626.900
RICE   1000010001    1    0    1.26466E+01    78.900
RICE   1000010001    1    0    2.26466E+01    20.900
RICE   1000010001    1    0    3.26466E+01   116.600
RICE   1000010001    1    0    4.26466E+01   142.600
RICE   1000010001    1    0    5.26466E+01   123.200
RICE   1000010001    1    0    6.26466E+01   206.400
RICE   1000010001    1    0    7.26466E+01   337.100
RICE   1000010001    1    0    8.26466E+01   364.700
RICE   1000010001    1    0    9.26466E+01   177.100
RICE   1000010001    1    0   10.26466E+01   109.300
RICE   1000010001    1    0   11.26466E+01    55.200
RICE   1000010001    1    0   12.26466E+01    97.900
RICE   1000010001    1    0 2002.26466E+01  1829.900
RICE   1000010001    1    0    1.26466E+01    68.500
RICE   1000010001    1    0    2.26466E+01    27.400
RICE   1000010001    1    0    3.26466E+01    96.800
RICE   1000010001    1    0    4.26466E+01   140.400
RICE   1000010001    1    0    5.26466E+01   216.000
RICE   1000010001    1    0    6.26466E+01   165.800
RICE   1000010001    1    0    7.26466E+01    56.700
RICE   1000010001    1    0    8.26466E+01   355.700
RICE   1000010001    1    0    9.26466E+01   162.700
RICE   1000010001    1    0   10.26466E+01     7.900
RICE   1000010001    1    0   11.26466E+01     4.000
RICE   1000010001    1    0   12.26466E+01     3.100
RICE   1000010001    1    0 2003.26466E+01  1305.000
RICE   1000010001    1    0    1.26466E+01    34.300
RICE   1000010001    1    0    2.26466E+01    56.800
RICE   1000010001    1    0    3.26466E+01   145.100
RICE   1000010001    1    0    4.26466E+01   128.700
RICE   1000010001    1    0    5.26466E+01   269.500
RICE   1000010001    1    0    6.26466E+01    80.200
RICE   1000010001    1    0    7.26466E+01   122.000
RICE   1000010001    1    0    8.26466E+01   218.700
RICE   1000010001    1    0    9.26466E+01   247.100
RICE   1000010001    1    0   10.26466E+01     0.000
RICE   1000010001    1    0   11.26466E+01    11.200
RICE   1000010001    1    0   12.26466E+01    26.700
RICE   1000010001    1    0 2004.26466E+01  1340.300
RICE   1000010001    1    0    1.26466E+01    12.200
RICE   1000010001    1    0    2.26466E+01   119.500
RICE   1000010001    1    0    3.26466E+01   158.500
RICE   1000010001    1    0    4.26466E+01    96.700
RICE   1000010001    1    0    5.26466E+01   343.700
RICE   1000010001    1    0    6.26466E+01   391.200
RICE   1000010001    1    0    7.26466E+01    73.400
RICE   1000010001    1    0    8.26466E+01   284.700
RICE   1000010001    1    0    9.26466E+01   172.300
RICE   1000010001    1    0   10.26466E+01   153.400
RICE   1000010001    1    0   11.26466E+01    16.700
RICE   1000010001    1    0   12.26466E+01    11.300
RICE   1000010001    1    0 2005.26466E+01  1833.600
RICE   1000010001    1    0    1.26466E+01     9.100
RICE   1000010001    1    0    2.26466E+01    77.900
RICE   1000010001    1    0    3.26466E+01   213.100
RICE   1000010001    1    0    4.26466E+01   221.300
RICE   1000010001    1    0    5.26466E+01   372.600
RICE   1000010001    1    0    6.26466E+01   392.500
RICE   1000010001    1    0    7.26466E+01   274.600
RICE   1000010001    1    0    8.26466E+01    37.600
RICE   1000010001    1    0    9.26466E+01   107.100
RICE   1000010001    1    0   10.26466E+01     0.000
RICE   1000010001    1    0   11.26466E+01   105.700
RICE   1000010001    1    0   12.26466E+01    76.900
RICE   1000010001    1    0 2006.26466E+01  1888.400
RICE   1000010001    1    0    1.26466E+01    47.400
RICE   1000010001    1    0    2.26466E+01    67.600
RICE   1000010001    1    0    3.26466E+01   102.800
RICE   1000010001    1    0    4.26466E+01   277.500
RICE   1000010001    1    0    5.26466E+01   237.900
RICE   1000010001    1    0    6.26466E+01   375.200
RICE   1000010001    1    0    7.26466E+01    49.700
RICE   1000010001    1    0    8.26466E+01   600.100
RICE   1000010001    1    0    9.26466E+01    60.600
RICE   1000010001    1    0   10.26466E+01    14.300
RICE   1000010001    1    0   11.26466E+01     5.500
RICE   1000010001    1    0   12.26466E+01    45.900
RICE   1000010001    1    0 2007.26466E+01  1884.500
RICE   1000010001    1    0    1.26466E+01    89.200
RICE   1000010001    1    0    2.26466E+01    21.300
RICE   1000010001    1    0    3.26466E+01   156.400
RICE   1000010001    1    0    4.26466E+01   127.100
RICE   1000010001    1    0    5.26466E+01   173.800
RICE   1000010001    1    0    6.26466E+01   243.400
RICE   1000010001    1    0    7.26466E+01   141.100
RICE   1000010001    1    0    8.26466E+01   153.700
RICE   1000010001    1    0    9.26466E+01   110.400
RICE   1000010001    1    0   10.26466E+01   159.700
RICE   1000010001    1    0   11.26466E+01    20.100
RICE   1000010001    1    0   12.26466E+01     4.900
RICE   1000010001    1    0 2008.26466E+01  1401.100
RICE   1000010001    1    0    1.26466E+01    17.000
RICE   1000010001    1    0    2.26466E+01     8.200
RICE   1000010001    1    0    3.26466E+01   140.600
RICE   1000010001    1    0    4.26466E+01   121.200
RICE   1000010001    1    0    5.26466E+01   184.100
RICE   1000010001    1    0    6.26466E+01   191.700
RICE   1000010001    1    0    7.26466E+01   263.200
RICE   1000010001    1    0    8.26466E+01   270.600
RICE   1000010001    1    0    9.26466E+01   139.500
RICE   1000010001    1    0   10.26466E+01     1.800
RICE   1000010001    1    0   11.26466E+01    56.700
RICE   1000010001    1    0   12.26466E+01    75.200
RICE   1000010001    1    0 2009.26466E+01  1469.800
RICE   1000010001    1    0    1.26466E+01    74.300
RICE   1000010001    1    0    2.26466E+01    95.000
RICE   1000010001    1    0    3.26466E+01   220.900
RICE   1000010001    1    0    4.26466E+01   250.200
RICE   1000010001    1    0    5.26466E+01   146.700
RICE   1000010001    1    0    6.26466E+01   406.800
RICE   1000010001    1    0    7.26466E+01   142.700
RICE   1000010001    1    0    8.26466E+01   296.600
RICE   1000010001    1    0    9.26466E+01   292.300
RICE   1000010001    1    0   10.26466E+01    83.100
RICE   1000010001    1    0   11.26466E+01     6.200
RICE   1000010001    1    0   12.26466E+01    49.400
RICE   1000010001    1    0 2010.26466E+01  2064.200
RICE   1000010001    1    0 10.0.26466E+01  1664.370
