1
    SWAT Jun 01 2011    VER 2009/Rev. 481                                                                0/ 0/   0      0: 0: 0

    General Input/Output section (file.cio):                                        
    2013/12/18 0:00:00 ARCGIS-SWAT interface AV                                     
                                                                                    


       SUB      GIS  MON   AREAkm2  PRECIPmm SNOMELTmm     PETmm      ETmm      SWmm    PERCmm    SURQmm    GW_Qmm    WYLDmm  SYLDt/ha ORGNkg/ha ORGPkg/haNSURQkg/ha SOLPkg/ha SEDPkg/ha LAT Q(mm)LATNO3kg/hGWNO3kg/haCHOLAkg/haCBODUkg/ha DOXQkg/ha
BIGSUB   1        0    1.31000E+02   101.196     0.000    28.100    28.100   182.021    26.628     6.178     0.000    14.552     1.916     8.130     0.996     0.017     0.002     0.114     8.374     0.504     0.000 .00000E+00 0.000E+00 0.000E+00
BIGSUB   2        0    1.48473E+02   100.895     0.000    27.351    27.234   185.008    26.921     7.861     0.000    15.505     1.438     5.992     0.734     0.027     0.002     0.095     7.644     0.480     0.000 .00000E+00 0.000E+00 0.000E+00
BIGSUB   3        0    1.76460E+02   101.196     0.000    28.195    27.929   196.953    24.206    11.350     0.000    24.326     8.245    23.901     2.928     0.034     0.003     0.466    12.976     0.919     0.000 .00000E+00 0.000E+00 0.000E+00
BIGSUB   4        0    1.85095E+02    98.583     0.000    28.178    27.706   199.158    23.481     8.960     0.000    22.201     6.880     8.409     1.030     0.028     0.003     0.352    13.241     0.954     0.000 .00000E+00 0.000E+00 0.000E+00
BIGSUB   5        0    1.37129E+02   101.196     0.000    28.072    27.713   199.013    21.616    10.508     0.000    25.771     6.545     5.447     0.667     0.029     0.003     0.346    15.263     1.035     0.000 .00000E+00 0.000E+00 0.000E+00
BIGSUB   6        0    1.34257E+02    88.132     0.000    27.941    26.111   256.356    12.679    10.244     0.000    25.714     6.857     4.305     0.528     0.036     0.003     0.374    15.470     0.971     0.000 .00000E+00 0.000E+00 0.000E+00
BIGSUB   7        0    1.71605E+02    94.764     0.000    27.307    26.487   303.868    10.021     7.182     0.000    29.350     7.117     6.677     0.818     0.022     0.002     0.350    22.168     1.054     0.000 .00000E+00 0.000E+00 0.000E+00
BIGSUB   8        0    1.97815E+02   101.196     0.000    28.116    27.752   203.953    22.192    10.999     0.000    27.097     9.940    12.717     1.558     0.031     0.003     0.503    16.098     1.133     0.000 .00000E+00 0.000E+00 0.000E+00
BIGSUB   9        0    1.36293E+02    88.132     0.000    27.993    24.840   322.863    11.351     8.108     0.000    21.406     1.182     4.067     0.499     0.030     0.002     0.094    13.298     0.423     0.000 .00000E+00 0.000E+00 0.000E+00
BIGSUB  10        0    1.56608E+02    93.157     0.000    29.469    29.468   218.980    12.979    10.451     0.000    30.314     3.519     0.285     0.035     0.030     0.003     0.235    19.863     1.442     0.000 .00000E+00 0.000E+00 0.000E+00
BIGSUB  11        0    1.13129E+03    93.157     0.000    29.546    29.545   218.974    13.349    10.005     0.000    29.957     3.782     0.298     0.036     0.028     0.003     0.245    19.952     1.453     0.000 .00000E+00 0.000E+00 0.000E+00
BIGSUB  12        0    1.69984E+02    98.583     0.000    28.156    28.155   236.419    20.609     7.522     0.000    20.950     3.305    17.947     2.198     0.024     0.002     0.186    13.428     0.760     0.000 .00000E+00 0.000E+00 0.000E+00
BIGSUB  13        0    1.48651E+02   136.469     0.000    28.960    28.839   240.065    30.494    31.583     0.000    44.886     2.201     3.075     0.377     0.095     0.009     0.204    13.303     0.442     0.000 .00000E+00 0.000E+00 0.000E+00
BIGSUB  14        0    1.58580E+02    92.453     0.000    29.469    29.429   228.231    14.805     9.380     0.000    24.616     5.345     0.390     0.048     0.024     0.003     0.299    15.237     1.068     0.000 .00000E+00 0.000E+00 0.000E+00
BIGSUB  15        0    1.18893E+02    89.438     0.000    30.368    30.349   202.877    12.634    15.931     0.000    27.293     4.417     0.343     0.042     0.048     0.005     0.282    11.362     0.577     0.000 .00000E+00 0.000E+00 0.000E+00
BIGSUB  16        0    1.12520E+03   100.895     0.000    27.426    27.094   201.957    23.232     8.111     0.000    23.462     6.523    11.284     1.382     0.024     0.002     0.335    15.351     1.083     0.000 .00000E+00 0.000E+00 0.000E+00
BIGSUB  17        0    1.36066E+02    79.389     0.000    31.297    30.760   323.189     4.400     2.401     0.000    16.147     0.587     0.051     0.006     0.007     0.001     0.042    13.746     0.617     0.000 .00000E+00 0.000E+00 0.000E+00
BIGSUB  18        0    1.31462E+02    79.389     0.000    31.095    31.095   181.661    13.929     7.296     0.000    11.420     0.086     0.016     0.003     0.030     0.002     0.014     4.125     0.241     0.000 .00000E+00 0.000E+00 0.000E+00
BIGSUB  19        0    1.35485E+02    94.764     0.000    27.201    25.856   298.766    11.270     9.697     0.000    29.235     6.678     1.258     0.154     0.031     0.003     0.346    19.538     0.939     0.000 .00000E+00 0.000E+00 0.000E+00
BIGSUB  20        0    1.83427E+02    88.935     0.000    29.806    29.806   210.674    13.750    11.291     0.000    24.854     4.742     0.316     0.039     0.038     0.003     0.272    13.563     0.980     0.000 .00000E+00 0.000E+00 0.000E+00
BIGSUB  21        0    1.33028E+02    94.764     0.000    27.080    24.921   374.164     7.273     6.339     0.000    26.503     0.915     2.709     0.332     0.022     0.002     0.072    20.164     0.520     0.000 .00000E+00 0.000E+00 0.000E+00
BIGSUB  22        0    1.99541E+01    94.764     0.000    28.539    26.849   233.245    11.498    13.463     0.000    27.451     7.039     0.453     0.056     0.044     0.004     0.374    13.988     0.740     0.000 .00000E+00 0.000E+00 0.000E+00
BIGSUB  23        0    1.35437E+01    94.764     0.000    28.458    26.430   210.252    10.993    23.961     0.000    36.873    14.665     0.901     0.111     0.086     0.007     0.788    12.913     0.872     0.000 .00000E+00 0.000E+00 0.000E+00
BIGSUB  24        0    1.36310E+01    94.764     0.000    28.473    26.050   217.876     8.893    29.830     0.000    40.610    16.940     1.071     0.132     0.109     0.008     0.963    10.780     0.704     0.000 .00000E+00 0.000E+00 0.000E+00
BIGSUB  25        0    1.75788E+00    94.764     0.000    34.672    29.801   213.716    12.519    17.870     0.000    28.313     3.629     0.261     0.031     0.065     0.005     0.249    10.444     0.560     0.000 .00000E+00 0.000E+00 0.000E+00
BIGSUB  26        0    1.58984E+02    88.132     0.000    27.877    26.120   233.132    11.339    11.166     0.000    29.622     9.265     1.014     0.124     0.038     0.003     0.460    18.456     1.195     0.000 .00000E+00 0.000E+00 0.000E+00
BIGSUB  27        0    1.50004E+02    80.093     0.000    29.252    29.182   240.807     8.522     6.077     0.000    20.043     4.205     0.274     0.034     0.015     0.002     0.226    13.966     0.918     0.000 .00000E+00 0.000E+00 0.000E+00
BIGSUB  28        0    1.84767E+02    73.762     0.000    30.598    30.598   217.350     6.281     3.236     0.000    15.984     0.922     0.078     0.010     0.009     0.001     0.064    12.748     0.869     0.000 .00000E+00 0.000E+00 0.000E+00
BIGSUB  29        0    1.47701E+02    79.691     0.000    30.246    28.260   211.128     8.633     9.103     0.000    22.280     5.773     0.377     0.046     0.026     0.003     0.311    13.177     0.880     0.000 .00000E+00 0.000E+00 0.000E+00
BIGSUB  30        0    1.20365E+02    74.867     0.000    29.794    26.425   245.162     5.252     7.818     0.000    19.995     5.673     0.365     0.045     0.023     0.002     0.301    12.177     0.706     0.000 .00000E+00 0.000E+00 0.000E+00
BIGSUB  31        0    1.11776E+03    79.691     0.000    30.015    29.672   305.111     6.242     6.127     0.000    16.560     1.065     0.970     0.119     0.026     0.002     0.083    10.432     0.419     0.000 .00000E+00 0.000E+00 0.000E+00
BIGSUB  32        0    1.35761E+02    87.228     0.000    28.770    26.665   206.053    10.473    14.028     0.000    26.077    13.428     2.064     0.253     0.041     0.004     0.632    12.050     0.815     0.000 .00000E+00 0.000E+00 0.000E+00
BIGSUB  33        0    1.89303E+02    87.228     0.000    28.916    27.542   200.058    14.007    11.504     0.000    19.809    11.694    19.031     2.331     0.033     0.003     0.567     8.304     0.615     0.000 .00000E+00 0.000E+00 0.000E+00
BIGSUB  34        0    1.85100E+02    74.867     0.000    30.845    30.810   215.619     7.203    10.298     0.000    19.936     0.833     0.077     0.010     0.046     0.003     0.070     9.638     0.646     0.000 .00000E+00 0.000E+00 0.000E+00
BIGSUB  35        0    1.12429E+02    80.093     0.000    29.242    28.873   340.067     3.593     1.397     0.000    17.763     1.384     0.087     0.011     0.003     0.000     0.072    16.366     0.681     0.000 .00000E+00 0.000E+00 0.000E+00
BIGSUB  36        0    1.52095E+02    74.867     0.000    30.219    27.466   193.354     7.925     9.658     0.000    17.024     5.626     6.611     0.810     0.032     0.003     0.313     7.366     0.485     0.000 .00000E+00 0.000E+00 0.000E+00
BIGSUB  37        0    1.74484E+02    74.867     0.000    30.980    30.381   315.737     5.164     3.795     0.000    13.314     0.071     0.165     0.021     0.014     0.001     0.011     9.519     0.269     0.000 .00000E+00 0.000E+00 0.000E+00
BIGSUB  38        0    1.48488E+02    84.414     0.000    32.442    32.442   216.809    10.703     7.389     0.000    22.851     2.403     0.197     0.024     0.019     0.002     0.162    15.463     1.127     0.000 .00000E+00 0.000E+00 0.000E+00
BIGSUB  39        0    1.14810E+02    84.414     0.000    32.149    31.721   262.123     9.402     5.027     0.000    17.387     1.475     0.113     0.014     0.015     0.001     0.094    12.360     0.581     0.000 .00000E+00 0.000E+00 0.000E+00
BIGSUB  40        0    1.46446E+02    84.414     0.000    32.319    31.829   271.822     5.410     2.046     0.000    24.050     0.871     0.068     0.008     0.005     0.001     0.056    22.004     0.936     0.000 .00000E+00 0.000E+00 0.000E+00
BIGSUB  41        0    1.30214E+02    84.414     0.000    32.170    31.505   304.923     8.934     7.067     0.000    18.741     1.067     1.687     0.207     0.025     0.002     0.088    11.674     0.519     0.000 .00000E+00 0.000E+00 0.000E+00
BIGSUB  42        0    1.45143E+02    80.595     0.000    28.134    26.793   274.705     7.718     5.615     0.000    19.762     3.232     0.209     0.026     0.015     0.002     0.172    14.147     0.687     0.000 .00000E+00 0.000E+00 0.000E+00
BIGSUB  43        0    1.39777E+02    80.595     0.000    28.294    26.874   258.588     8.129     8.150     0.000    20.518     3.390     0.223     0.028     0.027     0.002     0.185    12.368     0.678     0.000 .00000E+00 0.000E+00 0.000E+00
BIGSUB  44        0    1.64719E+02    74.867     0.000    29.815    27.745   247.729     6.118     8.812     0.000    19.818     2.940     0.199     0.025     0.034     0.002     0.180    11.006     0.571     0.000 .00000E+00 0.000E+00 0.000E+00
BIGSUB  45        0    1.34826E+02    74.867     0.000    29.942    28.652   202.510    11.229     5.159     0.000    14.154     2.893     0.374     0.046     0.014     0.001     0.158     8.994     0.597     0.000 .00000E+00 0.000E+00 0.000E+00
BIGSUB  46        0    1.72145E+02    71.957     0.000    26.284    26.251   214.809     9.182     4.848     0.000    21.486     4.064     0.257     0.031     0.011     0.001     0.212    16.638     1.021     0.000 .00000E+00 0.000E+00 0.000E+00
BIGSUB  47        0    1.41975E+02    76.324     0.000    25.751    25.749   216.775    13.490     6.875     0.000    23.616     2.188     0.171     0.021     0.014     0.002     0.141    16.741     1.008     0.000 .00000E+00 0.000E+00 0.000E+00
BIGSUB  48        0    1.75111E+02    82.102     0.000    30.913    29.956   236.130     8.020     9.964     0.000    24.046     0.123     0.016     0.003     0.048     0.002     0.014    14.081     0.511     0.000 .00000E+00 0.000E+00 0.000E+00
BIGSUB  49        0    1.62559E+02    74.867     0.000    29.704    26.996   285.956     6.210     6.727     0.000    16.865     1.841     0.330     0.041     0.023     0.002     0.111    10.137     0.464     0.000 .00000E+00 0.000E+00 0.000E+00
BIGSUB  50        0    1.13206E+02    47.346     0.000    20.699    18.788   261.324    12.270     1.301     0.000    12.922     0.158     0.014     0.002     0.002     0.000     0.012    11.620     0.346     0.000 .00000E+00 0.000E+00 0.000E+00
BIGSUB  51        0    1.62476E+02    87.228     0.000    29.000    27.711   193.725    21.291     6.974     0.000    11.823     2.388     4.908     0.601     0.020     0.002     0.141     4.849     0.348     0.000 .00000E+00 0.000E+00 0.000E+00
BIGSUB  52        0    1.48913E+02    91.649     0.000    29.240    28.028   185.840    21.220    10.765     0.000    15.756     6.244    34.808     4.264     0.028     0.003     0.342     4.991     0.379     0.000 .00000E+00 0.000E+00 0.000E+00
BIGSUB  53        0    1.20311E+02    91.649     0.000    28.993    27.666   231.091    20.289     9.047     0.000    17.552     1.818     0.146     0.018     0.028     0.003     0.129     8.505     0.355     0.000 .00000E+00 0.000E+00 0.000E+00
BIGSUB  54        0    1.46832E+01    74.364     0.000    30.648    28.146   185.386    10.283    13.843     0.000    16.556     0.147     0.031     0.005     0.060     0.004     0.023     2.712     0.182     0.000 .00000E+00 0.000E+00 0.000E+00
BIGSUB  55        0    1.26708E+02    80.595     0.000    27.973    26.619   210.792     9.813     9.896     0.000    22.579     4.112     0.283     0.035     0.032     0.003     0.240    12.683     0.858     0.000 .00000E+00 0.000E+00 0.000E+00
BIGSUB  56        0    1.11081E+02    74.364     0.000    30.808    27.883   199.070    10.225     6.886     0.000    14.456     1.410     0.120     0.015     0.021     0.002     0.099     7.571     0.504     0.000 .00000E+00 0.000E+00 0.000E+00
BIGSUB  57        0    1.10080E+03    82.102     0.000    30.732    30.221   270.948     8.785     9.195     0.000    19.898     0.817     0.077     0.010     0.040     0.002     0.071    10.704     0.621     0.000 .00000E+00 0.000E+00 0.000E+00
BIGSUB  58        0    1.86157E+01    80.897     0.000    29.617    26.401   183.652    12.360     5.642     0.000    20.342     0.907     0.317     0.039     0.023     0.002     0.079    14.700     0.560     0.000 .00000E+00 0.000E+00 0.000E+00
BIGSUB  59        0    1.37346E+02    84.213     0.000    30.293    28.560   205.133    11.199     6.433     0.000    19.666     1.480     0.124     0.015     0.020     0.002     0.102    13.233     0.851     0.000 .00000E+00 0.000E+00 0.000E+00
BIGSUB  60        0    1.23382E+02    84.213     0.000    30.104    28.322   233.232     9.000     3.611     0.000    17.848     0.679     0.059     0.007     0.012     0.001     0.049    14.237     0.667     0.000 .00000E+00 0.000E+00 0.000E+00
BIGSUB  61        0    1.33369E+02    91.649     0.000    29.213    28.180   325.380     5.769     4.397     0.000    24.678     1.793    11.840     1.450     0.011     0.001     0.104    20.281     0.980     0.000 .00000E+00 0.000E+00 0.000E+00
BIGSUB  62        0    1.37395E+02    74.364     0.000    31.019    28.626   197.785     9.587     5.160     0.000    13.509     0.776     0.071     0.009     0.015     0.002     0.059     8.349     0.555     0.000 .00000E+00 0.000E+00 0.000E+00
BIGSUB  63        0    1.14392E+02    74.364     0.000    30.886    28.411   202.781     6.121     7.608     0.000    19.393     1.165     0.105     0.013     0.029     0.002     0.088    11.785     0.610     0.000 .00000E+00 0.000E+00 0.000E+00
BIGSUB  64        0    1.88344E+01    80.896     0.000    29.494    28.336   155.011    11.443     7.900     0.000    26.475     0.270     0.036     0.005     0.030     0.002     0.033    18.575     0.790     0.000 .00000E+00 0.000E+00 0.000E+00
BIGSUB  65        0    1.46721E+02    74.365     0.000    31.078    28.736   209.757     8.098     9.175     0.000    18.561     1.569     0.137     0.017     0.035     0.003     0.119     9.386     0.627     0.000 .00000E+00 0.000E+00 0.000E+00
BIGSUB  66        0    1.12051E+02    80.897     0.000    29.476    29.185   175.526    14.406     9.638     0.000    15.416     0.002     0.004     0.001     0.048     0.002     0.000     5.779     0.245     0.000 .00000E+00 0.000E+00 0.000E+00
BIGSUB  67        0    1.11483E+03    89.639     0.000    30.137    29.919   215.814    16.185    13.071     0.000    22.749     1.826     0.152     0.019     0.041     0.003     0.128     9.678     0.633     0.000 .00000E+00 0.000E+00 0.000E+00
BIGSUB  68        0    1.11905E+03    73.259     0.000    29.678    28.177   149.231     4.711     5.877     0.000    30.797     0.332     0.030     0.004     0.027     0.001     0.027    24.920     0.941     0.000 .00000E+00 0.000E+00 0.000E+00
BIGSUB  69        0    1.31815E+02    84.213     0.000    29.970    29.014   217.508    10.555     5.428     0.000    22.136     1.343     0.116     0.014     0.017     0.002     0.095    16.708     1.104     0.000 .00000E+00 0.000E+00 0.000E+00
BIGSUB  70        0    1.10822E+03    84.213     0.000    29.782    27.295   234.332     9.890    10.794     0.000    22.204     2.045     0.554     0.068     0.038     0.003     0.156    11.410     0.660     0.000 .00000E+00 0.000E+00 0.000E+00
BIGSUB  71        0    1.62881E+02    84.213     0.000    30.060    29.361   280.645     5.884     5.484     0.000    20.647     1.435     0.106     0.013     0.023     0.001     0.123    15.163     0.636     0.000 .00000E+00 0.000E+00 0.000E+00
BIGSUB  72        0    1.42820E+02    99.287     0.000    28.274    28.033   207.522    25.119    14.206     0.000    16.988     0.634     0.062     0.008     0.044     0.004     0.050     2.782     0.145     0.000 .00000E+00 0.000E+00 0.000E+00
BIGSUB  73        0    1.49443E+02    89.639     0.000    30.048    29.431   221.851    19.445    10.777     0.000    16.632     0.986     0.614     0.076     0.034     0.003     0.080     5.855     0.257     0.000 .00000E+00 0.000E+00 0.000E+00
BIGSUB  74        0    1.38520E+02    75.972     0.000    28.631    27.424   156.446     7.529     5.305     0.000    25.311     0.650     0.058     0.007     0.021     0.001     0.052    20.006     0.791     0.000 .00000E+00 0.000E+00 0.000E+00
BIGSUB  75        0    1.37113E+02    75.972     0.000    28.434    25.341   151.446     6.735     5.665     0.000    30.859     0.759     0.063     0.008     0.020     0.002     0.052    25.195     0.992     0.000 .00000E+00 0.000E+00 0.000E+00
BIGSUB  76        0    1.58326E+00    75.972     0.000    40.088    32.248   237.759     0.000    53.327     0.000    53.340     0.515     0.116     0.018     0.200     0.010     0.107     0.014     0.000     0.000 .00000E+00 0.000E+00 0.000E+00
BIGSUB  77        0    1.19467E+02    99.287     0.000    28.234    27.798   195.775    17.866    24.241     0.000    30.510     0.849     0.081     0.011     0.084     0.006     0.066     6.268     0.277     0.000 .00000E+00 0.000E+00 0.000E+00
BIGSUB  78        0    1.43317E+02    75.972     0.000    28.521    26.723   158.146     5.918    12.540     0.000    31.876     1.052     0.671     0.083     0.056     0.003     0.094    19.337     0.672     0.000 .00000E+00 0.000E+00 0.000E+00
BIGSUB  79        0    1.38797E+02    99.287     0.000    28.326    24.163   116.874    21.368    16.477     0.000    40.946     3.313     2.554     0.313     0.049     0.005     0.214    24.468     0.851     0.000 .00000E+00 0.000E+00 0.000E+00
BIGSUB  80        0    1.10345E+03    77.379     0.000    29.124    25.935   149.666     6.598     8.376     0.000    32.907     0.840     0.075     0.010     0.031     0.002     0.073    24.531     0.969     0.000 .00000E+00 0.000E+00 0.000E+00
BIGSUB  81        0    1.62588E+02    75.972     0.000    28.502    27.234   153.368     6.566     6.854     0.000    27.527     1.022     0.085     0.011     0.026     0.002     0.091    20.674     0.814     0.000 .00000E+00 0.000E+00 0.000E+00
BIGSUB  82        0    1.74560E+02    77.379     0.000    29.258    25.524   160.845     6.908    10.259     0.000    31.735     1.307     0.111     0.014     0.033     0.003     0.093    21.476     0.837     0.000 .00000E+00 0.000E+00 0.000E+00
BIGSUB  83        0    1.13191E+03    81.096     0.000    29.142    26.694   209.909     8.235     9.535     0.000    23.795     5.844     0.375     0.046     0.030     0.003     0.309    14.259     0.919     0.000 .00000E+00 0.000E+00 0.000E+00
BIGSUB  84        0    1.11269E+01    81.098     0.000    28.558    25.949   201.048    13.722    25.090     0.000    25.511     1.234     0.136     0.017     0.095     0.007     0.103     0.421     0.024     0.000 .00000E+00 0.000E+00 0.000E+00
BIGSUB  85        0    1.35557E+02    81.097     0.000    29.159    26.474   212.055    11.157     5.922     0.000    14.380     3.211     1.159     0.142     0.019     0.002     0.176     8.458     0.433     0.000 .00000E+00 0.000E+00 0.000E+00
BIGSUB  86        0    1.38828E+02    81.097     0.000    29.234    26.026   215.618    11.439     8.119     0.000    15.861     8.316    18.516     2.268     0.026     0.002     0.420     7.741     0.426     0.000 .00000E+00 0.000E+00 0.000E+00
BIGSUB  87        0    1.91374E+02    80.494     0.000    28.881    28.715   190.322    17.538    16.131     0.000    16.852     0.484     0.060     0.008     0.058     0.004     0.059     0.720     0.063     0.000 .00000E+00 0.000E+00 0.000E+00
BIGSUB  88        0    1.54194E+01    73.837     0.000    26.431    23.916   134.068    17.579    13.705     0.000    27.696     0.509     0.493     0.061     0.050     0.003     0.045    13.991     0.477     0.000 .00000E+00 0.000E+00 0.000E+00
BIGSUB  89        0    1.71370E+02    74.177     0.000    28.677    27.829   167.254     9.186    10.982     0.000    21.338     1.618     0.134     0.017     0.039     0.003     0.130    10.356     0.503     0.000 .00000E+00 0.000E+00 0.000E+00
BIGSUB  90        0    1.61485E+02    73.259     0.000    29.552    28.969   176.219    13.179    11.386     0.000    15.720     0.317     0.040     0.006     0.047     0.003     0.040     4.335     0.207     0.000 .00000E+00 0.000E+00 0.000E+00
BIGSUB  91        0    1.11223E+02    73.783     0.000    28.374    27.689   198.750     9.188    15.725     0.000    19.821     0.712     0.076     0.011     0.067     0.004     0.083     4.096     0.158     0.000 .00000E+00 0.000E+00 0.000E+00
BIGSUB  92        0    1.78137E+01    68.361     0.000    29.972    27.580   238.972     7.798    18.914     0.000    21.173     1.774     0.155     0.020     0.066     0.004     0.164     2.259     0.088     0.000 .00000E+00 0.000E+00 0.000E+00
BIGSUB  93        0    1.67786E+01    65.873     0.000    27.488    24.876   169.232    10.635    14.840     0.000    31.281     0.609     0.069     0.009     0.044     0.003     0.068    16.441     0.525     0.000 .00000E+00 0.000E+00 0.000E+00
BIGSUB  94        0    1.37875E+02    71.907     0.000    27.699    27.005   190.988     6.374    16.252     0.000    25.628     0.549     0.056     0.008     0.067     0.004     0.050     9.376     0.378     0.000 .00000E+00 0.000E+00 0.000E+00
BIGSUB  95        0    1.40310E+02    77.379     0.000    29.135    25.806   166.040     8.529    12.893     0.000    30.768     0.849     0.082     0.011     0.046     0.003     0.071    17.875     0.636     0.000 .00000E+00 0.000E+00 0.000E+00
BIGSUB  96        0    1.17065E+03    75.972     0.000    28.724    27.145   338.175     3.895     5.535     0.000    16.394     0.204     0.023     0.003     0.020     0.001     0.022    10.859     0.282     0.000 .00000E+00 0.000E+00 0.000E+00
BIGSUB  97        0    1.51076E+02    94.262     0.000    28.961    28.148   229.059    21.206     6.503     0.000    16.749     1.448     0.116     0.014     0.017     0.002     0.096    10.246     0.437     0.000 .00000E+00 0.000E+00 0.000E+00
BIGSUB  98        0    1.15080E+03   105.141     0.000    28.991    28.742   180.423    15.924    16.245     0.000    44.235     7.895     0.510     0.063     0.051     0.004     0.431    27.990     1.466     0.000 .00000E+00 0.000E+00 0.000E+00
BIGSUB  99        0    1.10077E+03    94.262     0.000    29.002    27.823   216.934    14.301    12.869     0.000    27.302     6.438    10.392     1.273     0.042     0.003     0.354    14.433     0.860     0.000 .00000E+00 0.000E+00 0.000E+00
BIGSUB   1        0    2.31000E+02    63.210     0.000    28.897    28.897   186.447    13.343     0.012     0.000    19.942     0.001     0.000     0.000     0.000     0.000     0.000    19.930     1.034     0.000 .00000E+00 0.000E+00 0.000E+00
BIGSUB   2        0    2.48473E+02    90.745     0.000    27.639    27.479   189.730    29.915     3.035     0.000    23.274     0.082     0.139     0.017     0.009     0.001     0.011    20.239     1.011     0.000 .00000E+00 0.000E+00 0.000E+00
BIGSUB   3        0    2.76460E+02    63.210     0.000    28.994    28.622   201.553    13.205     1.792     0.000    18.630     0.496     1.032     0.127     0.006     0.000     0.023    16.838     1.002     0.000 .00000E+00 0.000E+00 0.000E+00
BIGSUB   4        0    2.85095E+02    56.376     0.000    27.845    27.346   203.784    10.880     0.732     0.000    15.954     0.418     0.051     0.006     0.002     0.000     0.017    15.222     0.935     0.000 .00000E+00 0.000E+00 0.000E+00
BIGSUB   5        0    2.37129E+02    63.210     0.000    28.859    28.379   203.919    12.214     0.544     0.000    19.314     0.169     0.010     0.001     0.002     0.000     0.008    18.770     1.019     0.000 .00000E+00 0.000E+00 0.000E+00
BIGSUB   6        0    2.34257E+02    48.236     0.000    27.494    25.787   261.473     5.749     1.680     0.000    11.630     0.425     0.155     0.019     0.006     0.000     0.022     9.951     0.517     0.000 .00000E+00 0.000E+00 0.000E+00
BIGSUB   7        0    2.71605E+02    61.401     0.000    27.100    25.958   306.869    11.464     0.876     0.000    21.259     0.627     0.373     0.046     0.002     0.000     0.025    20.383     0.775     0.000 .00000E+00 0.000E+00 0.000E+00
BIGSUB   8        0    2.97815E+02    63.210     0.000    28.906    28.407   208.773    12.791     0.813     0.000    18.498     0.494     0.097     0.012     0.002     0.000     0.020    17.684     1.028     0.000 .00000E+00 0.000E+00 0.000E+00
BIGSUB   9        0    2.36293E+02    48.236     0.000    27.540    24.643   327.069     7.195     1.200     0.000    12.441     0.060     0.167     0.021     0.005     0.000     0.007    11.241     0.404     0.000 .00000E+00 0.000E+00 0.000E+00
BIGSUB  10        0    2.56608E+02    33.665     0.000    29.998    29.997   217.606     0.829     0.677     0.000     9.421     0.240     0.019     0.002     0.002     0.000     0.016     8.745     0.544     0.000 .00000E+00 0.000E+00 0.000E+00
BIGSUB  11        0    2.13129E+03    33.665     0.000    30.075    30.075   217.600     0.831     0.606     0.000     9.368     0.245     0.019     0.002     0.002     0.000     0.016     8.762     0.547     0.000 .00000E+00 0.000E+00 0.000E+00
BIGSUB  12        0    2.69984E+02    56.376     0.000    27.813    27.813   240.991     9.939     0.403     0.000    15.992     0.104     0.497     0.061     0.001     0.000     0.006    15.589     0.859     0.000 .00000E+00 0.000E+00 0.000E+00
BIGSUB  13        0    2.48651E+02    51.352     0.000    27.529    27.376   245.283     7.669     1.436     0.000    17.355     0.019     0.004     0.001     0.006     0.000     0.003    15.919     0.608     0.000 .00000E+00 0.000E+00 0.000E+00
BIGSUB  14        0    2.58580E+02    45.322     0.000    28.388    28.367   232.568     4.819     0.331     0.000     9.924     0.192     0.012     0.001     0.001     0.000     0.010     9.592     0.576     0.000 .00000E+00 0.000E+00 0.000E+00
BIGSUB  15        0    2.18893E+02    34.368     0.000    29.339    29.339   202.519     1.108     0.907     0.000     6.550     0.304     0.021     0.003     0.003     0.000     0.017     5.643     0.274     0.000 .00000E+00 0.000E+00 0.000E+00
BIGSUB  16        0    2.12520E+03    90.745     0.000    27.696    27.158   207.191    27.046     2.209     0.000    25.394     1.019     1.111     0.136     0.006     0.001     0.047    23.185     1.284     0.000 .00000E+00 0.000E+00 0.000E+00
BIGSUB  17        0    2.36066E+02    43.714     0.000    28.112    27.852   326.870     3.284     0.179     0.000    12.287     0.063     0.005     0.001     0.001     0.000     0.004    12.108     0.460     0.000 .00000E+00 0.000E+00 0.000E+00
BIGSUB  18        0    2.31462E+02    43.714     0.000    27.936    27.936   183.136     6.269     1.853     0.000    11.992     0.018     0.005     0.001     0.008     0.001     0.004    10.139     0.547     0.000 .00000E+00 0.000E+00 0.000E+00
BIGSUB  19        0    2.35485E+02    61.401     0.000    26.995    25.206   301.860    12.896     1.385     0.000    20.243     0.715     0.038     0.005     0.004     0.000     0.032    18.858     0.736     0.000 .00000E+00 0.000E+00 0.000E+00
BIGSUB  20        0    2.83427E+02    22.309     0.000    27.295    27.294   203.083     0.597     0.810     0.000     7.279     0.062     0.005     0.001     0.005     0.000     0.004     6.469     0.451     0.000 .00000E+00 0.000E+00 0.000E+00
BIGSUB  21        0    2.33028E+02    61.401     0.000    26.876    24.222   376.600    13.085     1.412     0.000    21.999     0.080     0.179     0.022     0.005     0.000     0.008    20.587     0.468     0.000 .00000E+00 0.000E+00 0.000E+00
BIGSUB  22        0    2.99541E+01    61.401     0.000    27.242    25.409   236.984    12.104     2.111     0.000    20.161     1.031     0.054     0.007     0.006     0.001     0.046    18.050     0.837     0.000 .00000E+00 0.000E+00 0.000E+00
BIGSUB  23        0    2.35437E+01    61.401     0.000    27.163    25.002   214.393    11.618     6.044     0.000    19.842     2.549     0.130     0.016     0.021     0.002     0.115    13.799     0.796     0.000 .00000E+00 0.000E+00 0.000E+00
BIGSUB  24        0    2.36310E+01    61.401     0.000    27.178    24.573   222.218    10.980     8.338     0.000    20.494     3.242     0.170     0.021     0.028     0.002     0.154    12.157     0.702     0.000 .00000E+00 0.000E+00 0.000E+00
BIGSUB  25        0    2.75788E+00    61.401     0.000    32.517    27.899   217.166    12.156     3.242     0.000    21.029     0.689     0.035     0.004     0.016     0.001     0.025    17.786     0.806     0.000 .00000E+00 0.000E+00 0.000E+00
BIGSUB  26        0    2.58984E+02    48.236     0.000    27.424    25.776   238.782     4.700     1.031     0.000    11.147     0.608     0.030     0.004     0.003     0.000     0.026    10.115     0.503     0.000 .00000E+00 0.000E+00 0.000E+00
BIGSUB  27        0    2.50004E+02    34.268     0.000    28.118    28.081   240.808     1.384     0.407     0.000     8.482     0.251     0.014     0.002     0.001     0.000     0.011     8.074     0.446     0.000 .00000E+00 0.000E+00 0.000E+00
BIGSUB  28        0    2.84767E+02    29.545     0.000    30.242    30.242   210.502     1.927     0.129     0.000     7.766     0.095     0.006     0.001     0.000     0.000     0.005     7.637     0.486     0.000 .00000E+00 0.000E+00 0.000E+00
BIGSUB  29        0    2.47701E+02    43.111     0.000    27.944    26.528   213.288     4.428     1.815     0.000    12.242     0.884     0.053     0.006     0.005     0.000     0.044    10.426     0.589     0.000 .00000E+00 0.000E+00 0.000E+00
BIGSUB  30        0    2.20365E+02    45.825     0.000    26.770    24.792   247.629     6.235     2.189     0.000    14.062     1.463     0.083     0.010     0.006     0.001     0.069    11.873     0.604     0.000 .00000E+00 0.000E+00 0.000E+00
BIGSUB  31        0    2.11776E+03    43.111     0.000    27.728    27.509   308.050     3.491     1.856     0.000    11.922     0.135     0.233     0.029     0.008     0.000     0.012    10.066     0.372     0.000 .00000E+00 0.000E+00 0.000E+00
BIGSUB  32        0    2.35761E+02    54.065     0.000    28.094    26.019   208.536     8.682     4.063     0.000    18.556     3.707     0.171     0.021     0.011     0.001     0.144    14.493     0.860     0.000 .00000E+00 0.000E+00 0.000E+00
BIGSUB  33        0    2.89303E+02    54.065     0.000    28.241    26.896   202.517    10.283     3.131     0.000    16.819     2.814     2.445     0.299     0.009     0.001     0.117    13.688     0.917     0.000 .00000E+00 0.000E+00 0.000E+00
BIGSUB  34        0    2.85100E+02    37.082     0.000    28.602    28.581   217.103     1.161     3.140     0.000     8.744     0.118     0.011     0.002     0.017     0.001     0.011     5.603     0.309     0.000 .00000E+00 0.000E+00 0.000E+00
BIGSUB  35        0    2.12429E+02    34.268     0.000    28.101    27.908   340.079     0.518     0.006     0.000    10.283     0.003     0.000     0.000     0.000     0.000     0.000    10.277     0.319     0.000 .00000E+00 0.000E+00 0.000E+00
BIGSUB  36        0    2.52095E+02    45.825     0.000    27.142    25.690   195.629     5.986     2.696     0.000    14.400     1.386     0.916     0.112     0.008     0.001     0.067    11.705     0.712     0.000 .00000E+00 0.000E+00 0.000E+00
BIGSUB  37        0    2.74484E+02    37.082     0.000    28.714    28.384   317.878     0.648     0.757     0.000     9.150     0.017     0.050     0.006     0.004     0.000     0.002     8.393     0.254     0.000 .00000E+00 0.000E+00 0.000E+00
BIGSUB  38        0    2.48488E+02    24.520     0.000    33.137    33.053   206.286     0.170     0.028     0.000     5.444     0.011     0.001     0.000     0.000     0.000     0.001     5.416     0.383     0.000 .00000E+00 0.000E+00 0.000E+00
BIGSUB  39        0    2.14810E+02    24.520     0.000    32.831    31.640   252.252     0.067     0.000     0.000     8.114     0.000     0.000     0.000     0.000     0.000     0.000     8.114     0.387     0.000 .00000E+00 0.000E+00 0.000E+00
BIGSUB  40        0    2.46446E+02    24.520     0.000    33.007    31.743   261.155     0.066     0.002     0.000     6.963     0.001     0.000     0.000     0.000     0.000     0.000     6.961     0.263     0.000 .00000E+00 0.000E+00 0.000E+00
BIGSUB  41        0    2.30214E+02    24.520     0.000    32.846    31.177   295.871     0.067     0.635     0.000     5.728     0.017     0.081     0.010     0.006     0.000     0.002     5.093     0.188     0.000 .00000E+00 0.000E+00 0.000E+00
BIGSUB  42        0    2.45143E+02    46.026     0.000    28.073    27.161   276.498     5.171     1.212     0.000    14.152     0.420     0.026     0.003     0.003     0.000     0.021    12.940     0.539     0.000 .00000E+00 0.000E+00 0.000E+00
BIGSUB  43        0    2.39777E+02    46.026     0.000    28.230    27.250   259.131     6.406     2.596     0.000    13.910     0.448     0.030     0.004     0.008     0.001     0.024    11.314     0.532     0.000 .00000E+00 0.000E+00 0.000E+00
BIGSUB  44        0    2.64719E+02    45.825     0.000    26.783    25.682   250.705     5.296     3.753     0.000    14.060     0.725     0.044     0.006     0.013     0.001     0.040    10.307     0.464     0.000 .00000E+00 0.000E+00 0.000E+00
BIGSUB  45        0    2.34826E+02    45.825     0.000    26.894    26.170   204.876     7.904     1.311     0.000    11.407     0.690     0.040     0.005     0.004     0.000     0.034    10.096     0.618     0.000 .00000E+00 0.000E+00 0.000E+00
BIGSUB  46        0    2.72145E+02    30.787     0.000    25.248    25.240   214.606     1.361     0.224     0.000     8.856     0.211     0.011     0.001     0.001     0.000     0.009     8.632     0.448     0.000 .00000E+00 0.000E+00 0.000E+00
BIGSUB  47        0    2.41975E+02    36.451     0.000    25.910    25.910   221.057     1.553     0.316     0.000     9.235     0.122     0.008     0.001     0.001     0.000     0.006     8.919     0.465     0.000 .00000E+00 0.000E+00 0.000E+00
BIGSUB  48        0    2.75111E+02    43.111     0.000    28.133    27.910   238.692     2.507     4.206     0.000    13.152     0.012     0.003     0.001     0.022     0.001     0.002     8.946     0.238     0.000 .00000E+00 0.000E+00 0.000E+00
BIGSUB  49        0    2.62559E+02    45.825     0.000    26.673    25.178   289.488     6.614     2.030     0.000    12.060     0.441     0.110     0.014     0.007     0.001     0.025    10.030     0.399     0.000 .00000E+00 0.000E+00 0.000E+00
BIGSUB  50        0    2.13206E+02    26.290     0.000    20.385    18.796   264.952     3.818     0.000     0.000    11.214     0.000     0.000     0.000     0.000     0.000     0.000    11.214     0.275     0.000 .00000E+00 0.000E+00 0.000E+00
BIGSUB  51        0    2.62476E+02    54.065     0.000    28.307    27.126   196.229    14.176     1.279     0.000    12.922     0.370     0.027     0.003     0.004     0.000     0.021    11.643     0.737     0.000 .00000E+00 0.000E+00 0.000E+00
BIGSUB  52        0    2.48913E+02    52.457     0.000    27.799    26.793   189.120    11.687     1.434     0.000    14.330     0.641     3.130     0.383     0.004     0.000     0.032    12.896     0.857     0.000 .00000E+00 0.000E+00 0.000E+00
BIGSUB  53        0    2.20311E+02    52.457     0.000    27.560    26.585   234.411    12.056     2.245     0.000    14.652     0.274     0.022     0.003     0.007     0.001     0.020    12.407     0.474     0.000 .00000E+00 0.000E+00 0.000E+00
BIGSUB  54        0    2.46832E+01    44.116     0.000    29.082    28.008   184.893     5.555     6.473     0.000    13.620     0.072     0.017     0.003     0.029     0.002     0.011     7.147     0.424     0.000 .00000E+00 0.000E+00 0.000E+00
BIGSUB  55        0    2.26708E+02    46.026     0.000    27.903    26.949   210.755     6.696     2.835     0.000    14.350     0.503     0.036     0.004     0.008     0.001     0.030    11.515     0.692     0.000 .00000E+00 0.000E+00 0.000E+00
BIGSUB  56        0    2.11081E+02    44.116     0.000    29.229    27.840   199.723     6.081     1.973     0.000    11.889     0.786     0.054     0.007     0.005     0.001     0.045     9.916     0.561     0.000 .00000E+00 0.000E+00 0.000E+00
BIGSUB  57        0    2.10080E+03    43.111     0.000    27.972    27.821   274.307     3.976     2.838     0.000    11.194     0.120     0.011     0.002     0.015     0.001     0.011     8.355     0.406     0.000 .00000E+00 0.000E+00 0.000E+00
BIGSUB  58        0    2.86157E+01    44.920     0.000    29.614    26.879   185.738     4.341     1.426     0.000    13.957     0.281     0.073     0.009     0.007     0.000     0.022    12.530     0.394     0.000 .00000E+00 0.000E+00 0.000E+00
BIGSUB  59        0    2.37346E+02    51.653     0.000    31.112    29.965   204.884     7.555     2.103     0.000    16.852     1.214     0.075     0.009     0.005     0.001     0.062    14.749     0.798     0.000 .00000E+00 0.000E+00 0.000E+00
BIGSUB  60        0    2.23382E+02    51.653     0.000    30.911    30.043   232.962     7.157     1.186     0.000    19.222     0.583     0.038     0.005     0.003     0.000     0.031    18.037     0.712     0.000 .00000E+00 0.000E+00 0.000E+00
BIGSUB  61        0    2.33369E+02    52.457     0.000    27.764    27.078   328.923     5.763     0.684     0.000    19.311     0.244     1.591     0.195     0.002     0.000     0.013    18.627     0.902     0.000 .00000E+00 0.000E+00 0.000E+00
BIGSUB  62        0    2.37395E+02    44.116     0.000    29.431    28.310   198.454     5.534     1.334     0.000    12.301     0.396     0.029     0.004     0.004     0.000     0.024    10.967     0.620     0.000 .00000E+00 0.000E+00 0.000E+00
BIGSUB  63        0    2.14392E+02    44.116     0.000    29.300    28.146   203.269     3.876     2.855     0.000    13.823     0.653     0.049     0.006     0.010     0.001     0.041    10.967     0.522     0.000 .00000E+00 0.000E+00 0.000E+00
BIGSUB  64        0    2.88344E+01    44.920     0.000    29.486    28.832   156.277     3.302     2.558     0.000    10.759     0.102     0.015     0.002     0.012     0.001     0.012     8.201     0.219     0.000 .00000E+00 0.000E+00 0.000E+00
BIGSUB  65        0    2.46721E+02    44.116     0.000    29.478    28.298   210.117     5.225     3.279     0.000    12.082     0.854     0.061     0.008     0.012     0.001     0.054     8.802     0.503     0.000 .00000E+00 0.000E+00 0.000E+00
BIGSUB  66        0    2.12051E+02    44.920     0.000    29.467    29.309   176.245     3.789    12.687     0.000    15.336     0.002     0.006     0.002     0.055     0.003     0.000     2.649     0.075     0.000 .00000E+00 0.000E+00 0.000E+00
BIGSUB  67        0    2.11483E+03    42.810     0.000    30.320    30.212   219.198     2.285     3.091     0.000     9.578     0.191     0.014     0.002     0.014     0.001     0.012     6.487     0.348     0.000 .00000E+00 0.000E+00 0.000E+00
BIGSUB  68        0    2.11905E+03    31.153     0.000    29.661    28.918   143.704     0.276     1.579     0.000     7.657     0.011     0.002     0.001     0.010     0.000     0.002     6.078     0.049     0.000 .00000E+00 0.000E+00 0.000E+00
BIGSUB  69        0    2.31815E+02    51.653     0.000    30.769    30.115   217.295     7.624     1.647     0.000    16.159     0.874     0.057     0.007     0.004     0.000     0.047    14.512     0.820     0.000 .00000E+00 0.000E+00 0.000E+00
BIGSUB  70        0    2.10822E+03    51.653     0.000    30.572    28.942   234.543     7.384     4.167     0.000    16.879     1.712     0.477     0.059     0.011     0.001     0.101    12.712     0.632     0.000 .00000E+00 0.000E+00 0.000E+00
BIGSUB  71        0    2.62881E+02    51.653     0.000    30.853    30.676   280.902     5.449     2.204     0.000    18.458     1.275     0.059     0.007     0.008     0.000     0.072    16.253     0.569     0.000 .00000E+00 0.000E+00 0.000E+00
BIGSUB  72        0    2.42820E+02    29.444     0.000    30.122    30.013   201.169     2.391     8.772     0.000    13.164     0.006     0.003     0.001     0.031     0.002     0.001     4.392     0.262     0.000 .00000E+00 0.000E+00 0.000E+00
BIGSUB  73        0    2.49443E+02    42.810     0.000    30.206    29.947   225.654     2.543     2.856     0.000    10.036     0.082     0.049     0.006     0.012     0.001     0.007     7.181     0.327     0.000 .00000E+00 0.000E+00 0.000E+00
BIGSUB  74        0    2.38520E+02    46.327     0.000    29.849    29.361   156.451     3.730     1.334     0.000    13.280     0.039     0.006     0.001     0.007     0.000     0.005    11.946     0.378     0.000 .00000E+00 0.000E+00 0.000E+00
BIGSUB  75        0    2.37113E+02    46.327     0.000    29.637    27.708   151.704     3.592     1.479     0.000    13.632     0.011     0.003     0.001     0.006     0.000     0.002    12.153     0.306     0.000 .00000E+00 0.000E+00 0.000E+00
BIGSUB  76        0    2.58326E+00    46.327     0.000    40.623    33.306   234.630     0.000    20.661     0.000    20.736     0.177     0.050     0.008     0.075     0.004     0.036     0.075     0.002     0.000 .00000E+00 0.000E+00 0.000E+00
BIGSUB  77        0    2.19467E+02    29.444     0.000    30.074    29.801   187.928     1.867    11.977     0.000    15.138     0.014     0.006     0.002     0.048     0.003     0.002     3.161     0.118     0.000 .00000E+00 0.000E+00 0.000E+00
BIGSUB  78        0    2.43317E+02    46.327     0.000    29.719    28.627   157.190     3.557     4.419     0.000    14.229     0.106     0.013     0.002     0.023     0.001     0.014     9.810     0.226     0.000 .00000E+00 0.000E+00 0.000E+00
BIGSUB  79        0    2.38797E+02    29.444     0.000    30.167    25.801   113.094     1.725     3.638     0.000     9.481     0.013     0.003     0.001     0.013     0.001     0.002     5.843     0.095     0.000 .00000E+00 0.000E+00 0.000E+00
BIGSUB  80        0    2.10345E+03    38.288     0.000    28.853    26.718   147.393     2.443     2.478     0.000    11.937     0.065     0.007     0.001     0.011     0.001     0.008     9.459     0.232     0.000 .00000E+00 0.000E+00 0.000E+00
BIGSUB  81        0    2.62588E+02    46.327     0.000    29.702    29.199   153.411     3.210     1.936     0.000    13.608     0.150     0.013     0.002     0.008     0.001     0.015    11.672     0.348     0.000 .00000E+00 0.000E+00 0.000E+00
BIGSUB  82        0    2.74560E+02    38.288     0.000    28.983    26.399   159.368     2.727     1.906     0.000    11.055     0.021     0.004     0.001     0.008     0.001     0.003     9.150     0.265     0.000 .00000E+00 0.000E+00 0.000E+00
BIGSUB  83        0    2.13191E+03    44.618     0.000    31.496    29.792   212.164     2.676     1.631     0.000    12.755     1.023     0.054     0.007     0.005     0.000     0.045    11.124     0.565     0.000 .00000E+00 0.000E+00 0.000E+00
BIGSUB  84        0    2.11269E+01    44.619     0.000    30.851    29.187   200.820     6.119    10.768     0.000    11.765     0.229     0.037     0.005     0.049     0.003     0.019     0.996     0.058     0.000 .00000E+00 0.000E+00 0.000E+00
BIGSUB  85        0    2.35557E+02    44.619     0.000    31.500    29.703   213.823     3.349     0.886     0.000    15.189     0.537     0.031     0.004     0.003     0.000     0.026    14.303     0.691     0.000 .00000E+00 0.000E+00 0.000E+00
BIGSUB  86        0    2.38828E+02    44.619     0.000    31.583    29.413   217.639     3.848     1.280     0.000    14.156     1.181     1.168     0.143     0.004     0.000     0.053    12.876     0.691     0.000 .00000E+00 0.000E+00 0.000E+00
BIGSUB  87        0    2.91374E+02    23.716     0.000    30.152    30.000   180.203     1.608     3.504     0.000     5.484     0.030     0.004     0.001     0.019     0.001     0.004     1.980     0.176     0.000 .00000E+00 0.000E+00 0.000E+00
BIGSUB  88        0    2.54194E+01    21.755     0.000    27.597    24.569   125.912     1.139     3.894     0.000     6.383     0.011     0.006     0.001     0.020     0.001     0.002     2.489     0.032     0.000 .00000E+00 0.000E+00 0.000E+00
BIGSUB  89        0    2.71370E+02    19.688     0.000    30.519    29.759   152.891     1.126     3.228     0.000     7.444     0.051     0.006     0.001     0.016     0.001     0.005     4.216     0.213     0.000 .00000E+00 0.000E+00 0.000E+00
BIGSUB  90        0    2.61485E+02    31.153     0.000    29.518    29.259   173.286     1.012     3.505     0.000     6.099     0.041     0.007     0.001     0.019     0.001     0.006     2.595     0.159     0.000 .00000E+00 0.000E+00 0.000E+00
BIGSUB  91        0    2.11223E+02    19.583     0.000    30.182    29.519   184.033     1.269     8.672     0.000    10.308     0.067     0.012     0.002     0.043     0.002     0.008     1.637     0.065     0.000 .00000E+00 0.000E+00 0.000E+00
BIGSUB  92        0    2.78137E+01    18.144     0.000    31.506    29.089   224.494     1.173     8.208     0.000    10.556     0.118     0.014     0.003     0.035     0.002     0.011     2.347     0.084     0.000 .00000E+00 0.000E+00 0.000E+00
BIGSUB  93        0    2.67786E+01    19.408     0.000    28.302    25.845   158.619     0.875     2.746     0.000     5.601     0.055     0.009     0.001     0.013     0.001     0.006     2.854     0.034     0.000 .00000E+00 0.000E+00 0.000E+00
BIGSUB  94        0    2.37875E+02    19.085     0.000    29.460    28.921   175.911     0.860     5.238     0.000     9.165     0.015     0.004     0.001     0.027     0.001     0.003     3.928     0.130     0.000 .00000E+00 0.000E+00 0.000E+00
BIGSUB  95        0    2.40310E+02    38.288     0.000    28.849    26.424   164.456     3.081     3.929     0.000    11.373     0.059     0.008     0.001     0.018     0.001     0.007     7.443     0.168     0.000 .00000E+00 0.000E+00 0.000E+00
BIGSUB  96        0    2.17065E+03    46.327     0.000    29.907    29.216   342.687     2.219     1.896     0.000    12.113     0.020     0.003     0.001     0.007     0.000     0.004    10.217     0.212     0.000 .00000E+00 0.000E+00 0.000E+00
BIGSUB  97        0    2.51076E+02    38.187     0.000    28.873    28.243   226.778     5.745     0.299     0.000    14.019     0.008     0.001     0.000     0.001     0.000     0.001    13.721     0.566     0.000 .00000E+00 0.000E+00 0.000E+00
BIGSUB  98        0    2.15080E+03    36.780     0.000    27.441    27.267   178.507     3.243     1.431     0.000    10.783     0.112     0.008     0.001     0.007     0.000     0.007     9.353     0.439     0.000 .00000E+00 0.000E+00 0.000E+00
BIGSUB  99        0    2.10077E+03    38.187     0.000    28.911    27.910   214.250     4.148     2.051     0.000    15.597     0.224     0.106     0.013     0.008     0.000     0.013    13.545     0.693     0.000 .00000E+00 0.000E+00 0.000E+00
BIGSUB   1        0    3.31000E+02   150.337     0.000    48.405    48.834   182.959    50.743    12.018     0.000    39.785     5.877    24.069     2.948     0.025     0.003     0.299    27.767     0.643     0.000 .00000E+00 0.000E+00 0.000E+00
BIGSUB   2        0    3.48473E+02   163.702     0.000    48.519    48.754   184.315    57.928    20.222     0.759    53.137     4.864    23.177     2.840     0.044     0.005     0.292    32.156     0.681     0.270 .00000E+00 0.000E+00 0.000E+00
BIGSUB   3        0    3.76460E+02   150.337     0.000    48.560    48.821   198.258    45.538    19.805     0.000    50.573    17.408    44.283     5.425     0.042     0.004     0.748    30.768     1.050     0.000 .00000E+00 0.000E+00 0.000E+00
BIGSUB   4        0    3.85095E+02   139.886     0.000    46.607    46.617   200.277    42.868    16.248     0.000    45.236    12.691    24.646     3.019     0.035     0.004     0.546    28.987     1.089     0.000 .00000E+00 0.000E+00 0.000E+00
BIGSUB   5        0    3.37129E+02   150.337     0.000    48.343    48.448   200.133    43.426    17.839     0.026    53.509    13.961    16.077     1.969     0.038     0.005     0.618    35.644     1.179     0.010 .00000E+00 0.000E+00 0.000E+00
BIGSUB   6        0    3.34257E+02   150.839     0.000    48.127    46.934   257.281    38.883    27.737     0.000    63.706    18.023    24.284     2.975     0.063     0.007     0.836    35.969     1.436     0.000 .00000E+00 0.000E+00 0.000E+00
BIGSUB   7        0    3.71605E+02   145.815     0.000    46.502    46.139   303.902    34.247    18.125     0.000    63.767    18.956    22.707     2.781     0.041     0.004     0.789    45.642     1.264     0.000 .00000E+00 0.000E+00 0.000E+00
BIGSUB   8        0    3.97815E+02   150.337     0.000    48.418    48.512   205.104    43.579    19.096     0.000    54.747    19.252    31.673     3.880     0.124     0.005     0.810    35.651     1.445     0.000 .00000E+00 0.000E+00 0.000E+00
BIGSUB   9        0    3.36293E+02   150.839     0.000    48.202    46.029   323.536    43.935    23.731     0.000    57.490     8.094    34.875     4.273     0.053     0.006     0.465    33.759     0.684     0.000 .00000E+00 0.000E+00 0.000E+00
BIGSUB  10        0    3.56608E+02   124.209     0.000    46.144    46.748   220.301    23.973    14.567     0.000    44.519     9.636     0.568     0.070     0.031     0.004     0.469    29.952     1.396     0.000 .00000E+00 0.000E+00 0.000E+00
BIGSUB  11        0    3.13129E+03   124.209     0.000    46.258    46.842   220.309    24.478    13.865     0.000    43.949    10.204     0.584     0.072     0.030     0.004     0.482    30.084     1.403     0.000 .00000E+00 0.000E+00 0.000E+00
BIGSUB  12        0    3.69984E+02   139.886     0.000    46.554    46.929   237.270    41.170    13.269     0.004    46.048     7.019    35.288     4.323     0.028     0.003     0.337    32.774     1.348     0.002 .00000E+00 0.000E+00 0.000E+00
BIGSUB  13        0    3.48651E+02   139.383     0.000    47.881    48.175   241.232    43.609    19.175     0.022    42.373     1.058     0.738     0.091     0.040     0.005     0.102    23.176     0.433     0.009 .00000E+00 0.000E+00 0.000E+00
BIGSUB  14        0    3.58580E+02   125.616     0.000    51.571    52.195   228.103    30.332    18.550     0.000    44.405     2.151     1.831     0.224     0.038     0.005     0.127    25.855     1.164     0.000 .00000E+00 0.000E+00 0.000E+00
BIGSUB  15        0    3.18893E+02   126.018     0.000    49.496    50.762   203.758    25.210    26.357     0.000    44.647     6.344     0.418     0.051     0.054     0.007     0.347    18.290     0.671     0.000 .00000E+00 0.000E+00 0.000E+00
BIGSUB  16        0    3.12520E+03   163.702     0.000    48.611    48.686   201.884    51.281    20.510     0.148    64.999    13.772    32.238     3.949     0.045     0.005     0.653    44.342     1.354     0.047 .00000E+00 0.000E+00 0.000E+00
BIGSUB  17        0    3.36066E+02   146.317     0.000    48.157    48.652   326.786    39.762    15.629     0.000    49.286     2.333     5.675     0.695     0.032     0.004     0.154    33.657     0.999     0.000 .00000E+00 0.000E+00 0.000E+00
BIGSUB  18        0    3.31462E+02   146.317     0.000    47.868    48.213   181.826    45.421    24.869     0.000    38.755     0.451     0.068     0.009     0.160     0.006     0.060    13.887     0.418     0.000 .00000E+00 0.000E+00 0.000E+00
BIGSUB  19        0    3.35485E+02   145.815     0.000    46.328    45.239   298.897    36.426    21.994     0.000    62.604    16.522    14.689     1.799     0.051     0.005     0.717    40.610     1.141     0.000 .00000E+00 0.000E+00 0.000E+00
BIGSUB  20        0    3.83427E+02   125.715     0.000    50.412    50.953   209.941    23.049    18.107     0.000    38.153     2.257     0.147     0.019     0.134     0.004     0.132    20.045     1.057     0.000 .00000E+00 0.000E+00 0.000E+00
BIGSUB  21        0    3.33028E+02   145.815     0.000    46.131    44.359   373.728    36.796    18.009     0.000    61.906     9.510    36.946     4.526     0.040     0.005     0.495    43.897     0.732     0.000 .00000E+00 0.000E+00 0.000E+00
BIGSUB  22        0    3.99541E+01   145.815     0.000    47.668    47.340   233.567    34.230    27.050     0.000    60.153     6.591     0.385     0.047     0.056     0.006     0.299    33.102     0.962     0.000 .00000E+00 0.000E+00 0.000E+00
BIGSUB  23        0    3.35437E+01   145.815     0.000    47.537    46.797   209.893    29.067    43.916     0.046    70.891    15.459     0.714     0.088     0.299     0.009     0.627    26.928     1.548     0.021 .00000E+00 0.000E+00 0.000E+00
BIGSUB  24        0    3.36310E+01   145.815     0.000    47.561    46.465   217.504    26.699    51.202     0.058    74.434    18.299     0.860     0.107     0.313     0.011     0.762    23.174     1.367     0.027 .00000E+00 0.000E+00 0.000E+00
BIGSUB  25        0    3.75788E+00   145.815     0.000    55.118    50.448   213.639    30.955    34.949     0.000    62.342     3.854     0.205     0.024     0.074     0.008     0.167    27.393     0.701     0.000 .00000E+00 0.000E+00 0.000E+00
BIGSUB  26        0    3.58984E+02   150.839     0.000    48.006    47.441   234.224    34.102    28.625     0.000    70.212    19.489     7.008     0.858     0.064     0.007     0.853    41.587     1.740     0.000 .00000E+00 0.000E+00 0.000E+00
BIGSUB  27        0    3.50004E+02    92.554     0.000    49.551    50.316   242.487    15.038     4.630     0.000    21.933     0.797     0.089     0.011     0.010     0.001     0.044    17.302     0.694     0.000 .00000E+00 0.000E+00 0.000E+00
BIGSUB  28        0    3.84767E+02    97.277     0.000    48.678    49.364   218.048    13.601     3.992     0.000    22.618     1.214     0.084     0.010     0.008     0.001     0.069    18.625     0.772     0.000 .00000E+00 0.000E+00 0.000E+00
BIGSUB  29        0    3.47701E+02   125.113     0.000    48.359    47.693   212.349    24.568    23.593     0.000    48.866     7.874     0.452     0.055     0.048     0.006     0.377    25.274     1.141     0.000 .00000E+00 0.000E+00 0.000E+00
BIGSUB  30        0    3.20365E+02    93.458     0.000    50.572    48.409   246.414    15.483     9.227     0.000    27.701     2.224     0.515     0.063     0.019     0.002     0.126    18.475     0.654     0.000 .00000E+00 0.000E+00 0.000E+00
BIGSUB  31        0    3.11776E+03   125.113     0.000    48.001    48.409   306.917    31.417    16.399     0.000    39.572     3.103     7.534     0.924     0.046     0.004     0.197    23.174     0.718     0.000 .00000E+00 0.000E+00 0.000E+00
BIGSUB  32        0    3.35761E+02   144.910     0.000    49.134    48.458   206.020    29.749    34.941     0.000    60.675    16.694     1.240     0.152     0.072     0.008     0.620    25.733     1.033     0.000 .00000E+00 0.000E+00 0.000E+00
BIGSUB  33        0    3.89303E+02   144.910     0.000    49.376    49.211   199.790    36.818    29.808     0.000    50.295    16.808    25.703     3.148     0.062     0.007     0.683    20.487     0.836     0.000 .00000E+00 0.000E+00 0.000E+00
BIGSUB  34        0    3.85100E+02   110.843     0.000    50.369    50.829   213.706    21.131    19.395     0.000    37.539     1.377     0.285     0.036     0.101     0.005     0.107    18.144     0.882     0.000 .00000E+00 0.000E+00 0.000E+00
BIGSUB  35        0    3.12429E+02    92.554     0.000    49.522    49.902   343.773    12.984     0.817     0.000    21.967     0.167     0.041     0.005     0.026     0.000     0.010    21.150     0.612     0.000 .00000E+00 0.000E+00 0.000E+00
BIGSUB  36        0    3.52095E+02    93.458     0.000    51.249    49.611   194.086    15.506    10.575     0.000    24.940     2.390     2.283     0.280     0.022     0.002     0.131    14.365     0.521     0.000 .00000E+00 0.000E+00 0.000E+00
BIGSUB  37        0    3.74484E+02   110.843     0.000    50.557    50.634   321.023    23.384     7.149     0.000    27.198     0.343     0.869     0.107     0.015     0.002     0.037    20.049     0.319     0.000 .00000E+00 0.000E+00 0.000E+00
BIGSUB  38        0    3.48488E+02    82.605     0.000    54.715    55.125   217.885     2.240     0.946     0.000    11.887     0.233     0.018     0.002     0.040     0.000     0.015    10.941     0.517     0.000 .00000E+00 0.000E+00 0.000E+00
BIGSUB  39        0    3.14810E+02    82.605     0.000    54.240    53.592   263.655     1.160     0.777     0.000    12.944     0.214     0.015     0.002     0.002     0.000     0.012    12.167     0.145     0.000 .00000E+00 0.000E+00 0.000E+00
BIGSUB  40        0    3.46446E+02    82.605     0.000    54.513    53.489   271.369     0.540     0.000     0.000    16.860     0.000     0.000     0.000     0.000     0.000     0.000    16.860     0.105     0.000 .00000E+00 0.000E+00 0.000E+00
BIGSUB  41        0    3.30214E+02    82.605     0.000    54.262    53.161   304.378     6.001     3.065     0.000    12.937     0.232     0.794     0.098     0.009     0.001     0.023     9.872     0.080     0.000 .00000E+00 0.000E+00 0.000E+00
BIGSUB  42        0    3.45143E+02    95.066     0.000    48.057    47.730   276.902    18.054     4.757     0.000    25.692     1.519     0.086     0.011     0.010     0.001     0.072    20.935     0.600     0.000 .00000E+00 0.000E+00 0.000E+00
BIGSUB  43        0    3.39777E+02    95.066     0.000    48.315    47.744   259.006    18.420     7.935     0.000    26.075     1.620     0.117     0.015     0.017     0.002     0.079    18.140     0.696     0.000 .00000E+00 0.000E+00 0.000E+00
BIGSUB  44        0    3.64719E+02    93.458     0.000    50.595    49.082   249.512    14.469    10.757     0.000    27.527     1.422     0.244     0.031     0.061     0.002     0.086    16.769     0.722     0.000 .00000E+00 0.000E+00 0.000E+00
BIGSUB  45        0    3.34826E+02    93.458     0.000    50.797    50.254   203.235    20.770     5.546     0.000    20.287     1.033     0.073     0.009     0.012     0.001     0.061    14.741     0.591     0.000 .00000E+00 0.000E+00 0.000E+00
BIGSUB  46        0    3.72145E+02    83.152     0.000    44.494    44.998   216.298    14.243     3.152     0.000    22.961     0.637     0.039     0.005     0.006     0.001     0.033    19.809     0.748     0.000 .00000E+00 0.000E+00 0.000E+00
BIGSUB  47        0    3.41975E+02    56.302     0.000    43.728    44.221   217.758     6.305     0.430     0.000    11.565     0.073     0.005     0.001     0.018     0.000     0.004    11.135     0.308     0.000 .00000E+00 0.000E+00 0.000E+00
BIGSUB  48        0    3.75111E+02    79.389     0.000    53.346    53.319   231.471     9.617     9.173     0.000    22.474     0.082     0.013     0.002     0.022     0.002     0.012    13.301     0.163     0.000 .00000E+00 0.000E+00 0.000E+00
BIGSUB  49        0    3.62559E+02    93.458     0.000    50.395    48.474   287.967    19.379     7.982     0.000    24.119     0.752     0.648     0.080     0.017     0.002     0.053    16.137     0.513     0.000 .00000E+00 0.000E+00 0.000E+00
BIGSUB  50        0    3.13206E+02    46.875     0.000    31.750    29.855   261.446    18.011     0.930     0.000    16.203     0.004     0.001     0.000     0.001     0.000     0.001    15.273     0.226     0.000 .00000E+00 0.000E+00 0.000E+00
BIGSUB  51        0    3.62476E+02   144.910     0.000    49.488    49.017   192.971    50.475    21.392     0.002    36.519     5.058    14.255     1.746     0.044     0.006     0.276    15.125     0.480     0.001 .00000E+00 0.000E+00 0.000E+00
BIGSUB  52        0    3.48913E+02    95.166     0.000    52.403    52.045   186.613    23.785     5.086     0.000    17.274     1.002     5.412     0.663     0.055     0.001     0.058    12.188     0.476     0.000 .00000E+00 0.000E+00 0.000E+00
BIGSUB  53        0    3.20311E+02    95.166     0.000    51.970    51.222   232.053    24.925     5.814     0.000    18.027     0.510     0.042     0.005     0.090     0.001     0.038    12.213     0.228     0.000 .00000E+00 0.000E+00 0.000E+00
BIGSUB  54        0    3.46832E+01    76.676     0.000    51.321    48.627   182.452     9.987    11.298     0.000    17.908     0.104     0.024     0.004     0.027     0.003     0.018     6.610     0.216     0.000 .00000E+00 0.000E+00 0.000E+00
BIGSUB  55        0    3.26708E+02    95.066     0.000    47.777    47.381   210.874    16.806     9.401     0.000    27.728     1.863     0.120     0.015     0.056     0.002     0.101    18.327     0.859     0.000 .00000E+00 0.000E+00 0.000E+00
BIGSUB  56        0    3.11081E+02    76.676     0.000    51.568    49.243   199.982    10.821     3.569     0.000    14.000     0.720     0.053     0.007     0.026     0.001     0.044    10.431     0.366     0.000 .00000E+00 0.000E+00 0.000E+00
BIGSUB  57        0    3.10080E+03    79.389     0.000    53.056    53.440   267.153    12.876     7.395     0.000    18.796     0.648     0.049     0.007     0.076     0.002     0.049    11.401     0.588     0.000 .00000E+00 0.000E+00 0.000E+00
BIGSUB  58        0    3.86157E+01    80.093     0.000    47.440    45.138   182.772    15.359     3.900     0.000    21.752     0.576     0.189     0.023     0.150     0.001     0.047    17.851     0.377     0.000 .00000E+00 0.000E+00 0.000E+00
BIGSUB  59        0    3.37346E+02    71.651     0.000    51.046    49.652   205.400     6.353     1.580     0.000    14.466     0.133     0.012     0.001     0.004     0.000     0.010    12.886     0.355     0.000 .00000E+00 0.000E+00 0.000E+00
BIGSUB  60        0    3.23382E+02    71.651     0.000    50.733    49.659   233.573     5.371     0.853     0.000    15.107     0.058     0.006     0.001     0.002     0.000     0.005    14.254     0.235     0.000 .00000E+00 0.000E+00 0.000E+00
BIGSUB  61        0    3.33369E+02    95.166     0.000    52.339    52.039   326.543    12.516     2.550     0.000    29.063     0.466     3.769     0.462     0.006     0.001     0.029    26.513     1.187     0.000 .00000E+00 0.000E+00 0.000E+00
BIGSUB  62        0    3.37395E+02    76.676     0.000    51.908    50.081   198.710     9.821     2.421     0.000    13.958     0.398     0.031     0.004     0.040     0.001     0.026    11.537     0.596     0.000 .00000E+00 0.000E+00 0.000E+00
BIGSUB  63        0    3.14392E+02    76.676     0.000    51.687    49.505   203.413     6.704     5.381     0.000    18.327     0.666     0.055     0.007     0.012     0.001     0.048    12.946     0.322     0.000 .00000E+00 0.000E+00 0.000E+00
BIGSUB  64        0    3.88344E+01    80.093     0.000    47.248    47.346   153.531    12.394     6.349     0.000    23.610     0.280     0.034     0.005     0.069     0.002     0.031    17.262     0.318     0.000 .00000E+00 0.000E+00 0.000E+00
BIGSUB  65        0    3.46721E+02    76.676     0.000    51.985    49.652   209.312     9.332     6.365     0.000    16.534     1.021     0.075     0.010     0.089     0.002     0.069    10.169     0.464     0.000 .00000E+00 0.000E+00 0.000E+00
BIGSUB  66        0    3.12051E+02    80.093     0.000    47.218    47.372   168.965    16.894    14.659     0.000    20.196     0.003     0.008     0.003     0.047     0.004     0.000     5.538     0.107     0.000 .00000E+00 0.000E+00 0.000E+00
BIGSUB  67        0    3.11483E+03    66.124     0.000    51.178    51.683   213.755     8.838     4.223     0.000    11.488     0.150     0.014     0.002     0.034     0.001     0.012     7.265     0.174     0.000 .00000E+00 0.000E+00 0.000E+00
BIGSUB  68        0    3.11905E+03    71.852     0.000    48.245    46.735   143.246     3.384     3.901     0.000    21.895     0.047     0.008     0.001     0.034     0.001     0.008    17.994     0.242     0.000 .00000E+00 0.000E+00 0.000E+00
BIGSUB  69        0    3.31815E+02    71.651     0.000    50.513    49.906   217.677     6.637     1.316     0.000    14.127     0.133     0.012     0.001     0.048     0.000     0.010    12.811     0.474     0.000 .00000E+00 0.000E+00 0.000E+00
BIGSUB  70        0    3.10822E+03    71.651     0.000    50.204    47.783   234.574     7.272     4.181     0.000    15.680     0.499     0.355     0.044     0.028     0.001     0.036    11.499     0.367     0.000 .00000E+00 0.000E+00 0.000E+00
BIGSUB  71        0    3.62881E+02    71.651     0.000    50.643    50.736   280.552     4.285     2.348     0.000    16.281     0.859     0.030     0.004     0.006     0.000     0.039    13.933     0.202     0.000 .00000E+00 0.000E+00 0.000E+00
BIGSUB  72        0    3.42820E+02    69.842     0.000    49.324    49.648   201.401     9.528     5.401     0.000     8.466     0.013     0.005     0.001     0.029     0.001     0.002     3.065     0.107     0.000 .00000E+00 0.000E+00 0.000E+00
BIGSUB  73        0    3.49443E+02    66.124     0.000    50.995    51.388   220.413    10.082     3.621     0.000    10.232     0.100     0.086     0.011     0.010     0.001     0.011     6.611     0.131     0.000 .00000E+00 0.000E+00 0.000E+00
BIGSUB  74        0    3.38520E+02    77.178     0.000    49.000    49.291   154.827     7.679     3.224     0.000    21.534     0.097     0.013     0.002     0.008     0.001     0.011    18.310     0.251     0.000 .00000E+00 0.000E+00 0.000E+00
BIGSUB  75        0    3.37113E+02    77.178     0.000    48.669    47.411   150.111     7.075     3.602     0.000    24.777     0.045     0.009     0.001     0.008     0.001     0.006    21.175     0.284     0.000 .00000E+00 0.000E+00 0.000E+00
BIGSUB  76        0    3.58326E+00    77.178     0.000    63.376    52.399   225.314     0.000    42.663     0.000    42.771     0.324     0.088     0.014     0.074     0.008     0.063     0.108     0.002     0.000 .00000E+00 0.000E+00 0.000E+00
BIGSUB  77        0    3.19467E+02    69.842     0.000    49.250    49.297   185.094     6.997    10.720     0.000    14.495     0.039     0.010     0.002     0.047     0.002     0.005     3.775     0.044     0.000 .00000E+00 0.000E+00 0.000E+00
BIGSUB  78        0    3.43317E+02    77.178     0.000    48.797    47.970   153.958     6.389     9.315     0.000    26.448     0.238     0.037     0.005     0.058     0.002     0.029    17.132     1.961     0.000 .00000E+00 0.000E+00 0.000E+00
BIGSUB  79        0    3.38797E+02    69.842     0.000    49.393    43.685   113.977     8.324     2.823     0.000    16.319     0.045     0.007     0.001     0.012     0.001     0.005    13.496     2.440     0.000 .00000E+00 0.000E+00 0.000E+00
BIGSUB  80        0    3.10345E+03    72.355     0.000    48.847    46.472   145.360     5.029     4.629     0.000    22.268     0.149     0.016     0.002     0.010     0.001     0.016    17.639     0.219     0.000 .00000E+00 0.000E+00 0.000E+00
BIGSUB  81        0    3.62588E+02    77.178     0.000    48.771    48.913   151.739     6.639     4.505     0.000    23.162     0.334     0.027     0.004     0.048     0.001     0.031    18.657     0.322     0.000 .00000E+00 0.000E+00 0.000E+00
BIGSUB  82        0    3.74560E+02    72.355     0.000    49.056    46.900   157.288     6.291     4.320     0.000    20.441     0.039     0.007     0.001     0.009     0.001     0.006    16.121     0.239     0.000 .00000E+00 0.000E+00 0.000E+00
BIGSUB  83        0    3.13191E+03    78.182     0.000    48.760    48.578   210.374    10.326     3.605     0.000    17.927     0.432     0.029     0.004     0.008     0.001     0.024    14.322     0.465     0.000 .00000E+00 0.000E+00 0.000E+00
BIGSUB  84        0    3.11269E+01    78.183     0.000    47.826    47.112   196.610    16.632    15.927     0.000    16.931     0.130     0.040     0.005     0.043     0.004     0.016     1.004     0.042     0.000 .00000E+00 0.000E+00 0.000E+00
BIGSUB  85        0    3.35557E+02    78.183     0.000    48.765    48.344   212.510    12.611     2.115     0.000    14.771     0.209     0.017     0.002     0.005     0.001     0.014    12.656     0.290     0.000 .00000E+00 0.000E+00 0.000E+00
BIGSUB  86        0    3.38828E+02    78.183     0.000    48.885    48.330   215.774    13.571     3.067     0.000    14.492     0.483     0.906     0.111     0.007     0.001     0.031    11.425     0.318     0.000 .00000E+00 0.000E+00 0.000E+00
BIGSUB  87        0    3.91374E+02    84.413     0.000    48.053    48.604   186.418    15.937     8.860     0.000    10.701     0.167     0.022     0.004     0.061     0.002     0.022     1.841     0.115     0.000 .00000E+00 0.000E+00 0.000E+00
BIGSUB  88        0    3.54194E+01    77.432     0.000    43.986    40.982   128.388    16.403     7.682     0.000    19.141     0.054     0.018     0.003     0.065     0.002     0.009    11.459     1.037     0.000 .00000E+00 0.000E+00 0.000E+00
BIGSUB  89        0    3.71370E+02    81.535     0.000    49.018    47.489   163.011     5.450     6.136     0.000    15.413     0.410     0.035     0.005     0.019     0.001     0.038     9.277     0.179     0.000 .00000E+00 0.000E+00 0.000E+00
BIGSUB  90        0    3.61485E+02    71.852     0.000    48.026    47.937   171.848    11.150     7.837     0.000    12.157     0.165     0.022     0.004     0.053     0.002     0.021     4.320     0.130     0.000 .00000E+00 0.000E+00 0.000E+00
BIGSUB  91        0    3.11223E+02    81.102     0.000    48.492    47.176   190.314     7.525    12.045     0.000    15.586     0.466     0.052     0.008     0.067     0.003     0.047     3.542     0.047     0.000 .00000E+00 0.000E+00 0.000E+00
BIGSUB  92        0    3.78137E+01    75.142     0.000    49.571    45.960   231.316     6.325    13.540     0.000    16.015     0.806     0.068     0.010     0.038     0.003     0.070     2.475     0.028     0.000 .00000E+00 0.000E+00 0.000E+00
BIGSUB  93        0    3.67786E+01    69.080     0.000    44.065    40.857   165.502     8.419     8.354     0.000    20.951     0.281     0.037     0.005     0.022     0.002     0.030    12.597     0.114     0.000 .00000E+00 0.000E+00 0.000E+00
BIGSUB  94        0    3.37875E+02    79.040     0.000    47.328    46.078   183.401     3.911    11.466     0.000    19.266     0.104     0.021     0.004     0.033     0.003     0.017     7.800     0.137     0.000 .00000E+00 0.000E+00 0.000E+00
BIGSUB  95        0    3.40310E+02    72.355     0.000    48.842    46.338   160.767     8.132     7.482     0.000    20.554     0.080     0.013     0.002     0.016     0.002     0.011    13.072     0.103     0.000 .00000E+00 0.000E+00 0.000E+00
BIGSUB  96        0    3.17065E+03    77.178     0.000    49.091    49.243   341.203    10.297     4.105     0.000    17.191     0.049     0.028     0.004     0.008     0.001     0.008    13.086     0.134     0.000 .00000E+00 0.000E+00 0.000E+00
BIGSUB  97        0    3.51076E+02    93.961     0.000    50.209    49.164   229.889    21.177     2.178     0.000    13.369     0.103     0.009     0.001     0.005     0.001     0.007    11.191     0.168     0.000 .00000E+00 0.000E+00 0.000E+00
BIGSUB  98        0    3.15080E+03    71.460     0.000    50.173    49.654   178.426     4.770     2.757     0.000    16.294     0.105     0.010     0.001     0.007     0.001     0.010    13.537     0.143     0.000 .00000E+00 0.000E+00 0.000E+00
BIGSUB  99        0    3.10077E+03    93.961     0.000    50.273    48.737   217.302    14.171     6.889     0.000    21.038     0.282     0.622     0.077     0.015     0.001     0.025    14.149     0.359     0.000 .00000E+00 0.000E+00 0.000E+00
BIGSUB   1        0    4.31000E+02   246.609     0.000    45.416    46.032   184.271   106.609    11.125    12.526    85.270     0.196     0.243     0.030     0.207     0.002     0.019    61.619     1.215     3.082 .00000E+00 0.000E+00 0.000E+00
BIGSUB   2        0    4.48473E+02   256.156     0.000    43.801    44.373   183.890   112.573    21.598    24.869   106.369     0.320     0.329     0.041     0.451     0.004     0.036    59.902     1.384     6.614 .00000E+00 0.000E+00 0.000E+00
BIGSUB   3        0    4.76460E+02   246.609     0.000    45.554    46.288   199.640    95.933    23.792    11.373   101.487     1.394     1.152     0.142     0.081     0.003     0.028    66.323     0.717     2.178 .00000E+00 0.000E+00 0.000E+00
BIGSUB   4        0    4.85095E+02   211.436     0.000    45.507    45.901   196.149    85.319    13.465     6.966    82.814     0.628     1.031     0.126     0.132     0.002     0.027    62.383     1.902     1.639 .00000E+00 0.000E+00 0.000E+00
BIGSUB   5        0    4.37129E+02   246.609     0.000    45.353    46.085   201.175    90.561    21.729     6.961   103.861     0.591     0.182     0.022     0.236     0.004     0.032    75.170     1.574     1.997 .00000E+00 0.000E+00 0.000E+00
BIGSUB   6        0    4.34257E+02   208.221     0.000    45.149    45.609   253.588    72.483    21.504     2.852    94.493     1.084     0.619     0.076     0.174     0.004     0.044    70.137     2.497     0.641 .00000E+00 0.000E+00 0.000E+00
BIGSUB   7        0    4.71605E+02   225.003     0.000    43.782    44.283   303.398    70.801    15.773     1.131   107.696     0.136     0.258     0.032     0.036     0.002     0.009    90.793     1.237     0.215 .00000E+00 0.000E+00 0.000E+00
BIGSUB   8        0    4.97815E+02   246.609     0.000    45.421    46.101   206.144    90.816    22.904     8.350   106.563     0.618     2.091     0.256     0.061     0.003     0.029    75.308     1.651     2.280 .00000E+00 0.000E+00 0.000E+00
BIGSUB   9        0    4.36293E+02   208.221     0.000    45.210    45.721   319.970    81.152    18.129     4.084    85.456     0.276     0.823     0.102     0.168     0.004     0.023    63.243     1.601     1.127 .00000E+00 0.000E+00 0.000E+00
BIGSUB  10        0    4.56608E+02   179.580     0.000    44.056    45.135   223.191    49.768    14.055     0.000    78.606     0.172     0.016     0.002     0.032     0.003     0.013    64.552     1.826     0.000 .00000E+00 0.000E+00 0.000E+00
BIGSUB  11        0    4.13129E+03   179.580     0.000    44.159    45.185   223.199    50.489    13.335     0.000    78.029     0.168     0.015     0.002     0.030     0.003     0.012    64.694     1.810     0.000 .00000E+00 0.000E+00 0.000E+00
BIGSUB  12        0    4.69984E+02   211.436     0.000    45.449    45.811   233.295    81.158    11.547     7.560    87.010     0.639     3.402     0.417     0.145     0.002     0.031    67.903     1.950     2.341 .00000E+00 0.000E+00 0.000E+00
BIGSUB  13        0    4.48651E+02   191.639     0.000    46.790    47.314   239.679    77.205    17.764     7.944    69.028     0.233     0.031     0.005     0.267     0.004     0.026    43.319     0.659     2.802 .00000E+00 0.000E+00 0.000E+00
BIGSUB  14        0    4.58580E+02   174.154     0.000    46.517    46.723   224.396    63.491    10.259     0.650    64.088     0.318     0.027     0.003     0.058     0.002     0.016    53.178     1.249     0.491 .00000E+00 0.000E+00 0.000E+00
BIGSUB  15        0    4.18893E+02   187.318     0.000    44.847    46.631   208.230    61.621    27.487     0.822    68.083     0.088     0.010     0.001     0.109     0.005     0.008    39.774     1.098     0.448 .00000E+00 0.000E+00 0.000E+00
BIGSUB  16        0    4.12520E+03   256.156     0.000    43.862    44.589   200.541    99.034    21.805    17.102   118.366     0.168     0.562     0.069     0.048     0.004     0.013    79.459     0.635     3.239 .00000E+00 0.000E+00 0.000E+00
BIGSUB  17        0    4.36066E+02   210.532     0.000    45.411    45.796   330.227    74.835    13.360     1.162    84.502     0.803     1.326     0.162     0.030     0.003     0.040    69.980     1.201     0.207 .00000E+00 0.000E+00 0.000E+00
BIGSUB  18        0    4.31462E+02   210.532     0.000    45.165    46.084   187.254    85.074    26.962     4.682    65.915     0.219     0.038     0.006     0.803     0.004     0.025    34.271     0.957     2.383 .00000E+00 0.000E+00 0.000E+00
BIGSUB  19        0    4.35485E+02   225.003     0.000    43.625    44.207   298.233    75.090    20.628     1.954   103.573     0.132     0.121     0.015     0.047     0.003     0.009    80.991     1.116     0.345 .00000E+00 0.000E+00 0.000E+00
BIGSUB  20        0    4.83427E+02   186.613     0.000    46.978    48.254   208.944    59.910    23.306     0.683    76.639     0.544     0.046     0.006     0.493     0.004     0.033    52.650     2.188     0.582 .00000E+00 0.000E+00 0.000E+00
BIGSUB  21        0    4.33028E+02   225.003     0.000    43.449    43.989   373.463    75.378    16.409     2.035   103.096     0.183     0.594     0.074     0.091     0.003     0.016    84.653     0.905     0.374 .00000E+00 0.000E+00 0.000E+00
BIGSUB  22        0    4.99541E+01   225.003     0.000    43.550    44.212   233.288    73.390    28.666     1.597    99.350     0.101     0.009     0.001     0.066     0.005     0.007    69.087     0.982     0.383 .00000E+00 0.000E+00 0.000E+00
BIGSUB  23        0    4.35437E+01   225.003     0.000    43.437    44.758   211.138    63.732    51.693     2.853   112.583     0.551     0.057     0.008     0.472     0.007     0.027    58.038     1.945     1.617 .00000E+00 0.000E+00 0.000E+00
BIGSUB  24        0    4.36310E+01   225.003     0.000    43.458    45.046   219.356    59.764    62.858     2.318   115.692     0.704     0.063     0.009     0.648     0.007     0.030    50.516     2.294     1.465 .00000E+00 0.000E+00 0.000E+00
BIGSUB  25        0    4.75788E+00   225.003     0.000    49.616    47.148   213.864    69.123    38.723     1.236    98.025     0.324     0.054     0.005     0.334     0.007     0.006    58.066     0.874     0.288 .00000E+00 0.000E+00 0.000E+00
[...]
BIGSUB  19        0 10.0.35485E+02  1589.058     0.000   780.391   511.650   292.770   371.625   226.289   109.142   805.646     2.688     2.180     0.268     0.663     0.092     0.151   470.215     4.730     4.915 .00000E+00 0.000E+00 0.000E+00
BIGSUB  20        0 10.0.83427E+02  1834.502     0.000   777.267   559.665   200.392   373.460   513.159   121.732  1013.045     3.939     0.672     0.143     1.902     0.104     0.239   378.153     4.379    11.914 .00000E+00 0.000E+00 0.000E+00
BIGSUB  21        0 10.0.33028E+02  1589.059     0.000   777.534   515.222   366.298   374.281   168.133   112.766   803.249     1.281     5.584     0.690     0.641     0.054     0.085   522.349     4.762     5.803 .00000E+00 0.000E+00 0.000E+00
BIGSUB  22        0 10.0.99541E+01  1589.059     0.000   766.260   528.228   230.560   339.467   289.140    93.838   805.860     1.717     0.290     0.036     0.837     0.091     0.098   422.882     6.233     7.352 .00000E+00 0.000E+00 0.000E+00
BIGSUB  23        0 10.0.35437E+01  1589.058     0.000   764.459   567.743   198.883   265.149   442.239    62.120   810.316     5.253     1.259     0.131     2.009     0.091     0.291   305.958     7.633     7.747 .00000E+00 0.000E+00 0.000E+00
BIGSUB  24        0 10.0.36310E+01  1589.058     0.000   764.793   580.674   203.418   235.234   507.191    49.229   814.691     6.092     1.208     0.143     2.544     0.087     0.342   258.271     8.219     6.805 .00000E+00 0.000E+00 0.000E+00
BIGSUB  25        0 10.0.75788E+00  1589.058     0.000   868.544   616.948   206.901   299.713   352.347    75.464   812.109     1.930     0.500     0.051     1.298     0.119     0.099   384.298     6.772     9.523 .00000E+00 0.000E+00 0.000E+00
BIGSUB  26        0 10.0.58984E+02  1528.441     0.000   784.818   514.203   228.862   300.041   279.531    65.114   769.648     3.354     1.126     0.140     0.806     0.093     0.184   425.003     4.481     2.691 .00000E+00 0.000E+00 0.000E+00
BIGSUB  27        0 10.0.50004E+02  1735.255     0.000   790.265   533.152   238.369   344.518   446.830    91.387   938.817     1.272     0.827     0.104     1.310     0.106     0.110   400.600     3.079     2.855 .00000E+00 0.000E+00 0.000E+00
BIGSUB  28        0 10.0.84767E+02  1541.033     0.000   790.331   514.970   211.535   291.198   346.369    58.965   785.341     0.860     0.200     0.027     0.976     0.080     0.086   380.007     2.819     1.361 .00000E+00 0.000E+00 0.000E+00
BIGSUB  29        0 10.0.47701E+02  1654.439     0.000   798.803   538.294   203.854   321.035   396.668    73.915   860.452     1.999     0.231     0.030     1.182     0.101     0.130   389.870     5.543     4.636 .00000E+00 0.000E+00 0.000E+00
BIGSUB  30        0 10.0.20365E+02  1600.685     0.000   780.627   545.614   240.929   299.079   367.697    66.432   813.409     1.472     0.710     0.089     1.089     0.095     0.108   379.280     5.805     3.976 .00000E+00 0.000E+00 0.000E+00
BIGSUB  31        0 10.0.11776E+03  1654.439     0.000   793.779   554.620   290.117   413.103   295.480   143.543   821.412     4.155     6.370     0.865     1.271     0.069     0.239   382.389     4.295    10.489 .00000E+00 0.000E+00 0.000E+00
BIGSUB  32        0 10.0.35761E+02  1643.988     0.000   774.757   551.027   201.201   321.917   385.826    86.226   847.347     3.991     1.348     0.167     1.167     0.096     0.195   375.296     7.564     7.017 .00000E+00 0.000E+00 0.000E+00
BIGSUB  33        0 10.0.89303E+02  1643.988     0.000   777.994   557.293   194.092   399.308   331.461   133.836   811.409     5.874     8.455     1.081     1.005     0.067     0.273   346.112     6.399    11.445 .00000E+00 0.000E+00 0.000E+00
BIGSUB  34        0 10.0.85100E+02  1641.827     0.000   781.879   554.802   195.627   303.653   464.004    84.942   860.668     1.758     0.646     0.123     2.072     0.087     0.158   311.722     2.589     8.977 .00000E+00 0.000E+00 0.000E+00
BIGSUB  35        0 10.0.12429E+02  1735.255     0.000   789.828   532.573   337.838   387.904   298.831   118.490   923.576     2.053     6.660     0.752     0.876     0.069     0.144   506.255     3.980     4.084 .00000E+00 0.000E+00 0.000E+00
BIGSUB  36        0 10.0.52095E+02  1600.686     0.000   789.413   551.456   187.390   325.454   374.367    88.758   803.795     1.830     2.809     0.352     1.397     0.103     0.127   340.669     5.800     6.846 .00000E+00 0.000E+00 0.000E+00
BIGSUB  37        0 10.0.74484E+02  1641.827     0.000   784.270   526.845   312.201   448.558   254.833   166.177   823.484     0.587     2.197     0.290     0.957     0.062     0.078   402.474     2.885    12.246 .00000E+00 0.000E+00 0.000E+00
BIGSUB  38        0 10.0.48488E+02  1542.641     0.000   810.905   522.506   212.562   309.026   341.147    68.867   771.789     3.906     0.715     0.164     0.932     0.077     0.210   361.775     4.334     1.198 .00000E+00 0.000E+00 0.000E+00
BIGSUB  39        0 10.0.14810E+02  1542.641     0.000   804.955   498.757   261.410   390.990   259.565   123.160   767.789     0.446     0.700     0.087     0.707     0.066     0.044   385.064     2.557     3.067 .00000E+00 0.000E+00 0.000E+00
BIGSUB  40        0 10.0.46446E+02  1542.641     0.000   808.369   475.724   273.503   338.225   185.268    87.271   807.350     0.498     1.045     0.130     0.474     0.045     0.054   534.811     2.691     1.946 .00000E+00 0.000E+00 0.000E+00
BIGSUB  41        0 10.0.30214E+02  1542.641     0.000   805.196   539.989   293.991   424.907   261.039   149.239   719.670     1.833     8.245     1.075     0.884     0.058     0.178   309.392     2.229    10.539 .00000E+00 0.000E+00 0.000E+00
BIGSUB  42        0 10.0.45143E+02  1787.592     0.000   780.689   524.069   274.887   432.666   312.701   149.421   970.136     1.174     0.881     0.118     0.936     0.086     0.104   508.014     4.913    11.151 .00000E+00 0.000E+00 0.000E+00
BIGSUB  43        0 10.0.39777E+02  1787.591     0.000   784.195   547.030   254.171   416.550   386.913   146.013   959.433     1.888     3.875     0.516     1.457     0.090     0.149   426.507     4.781    13.533 .00000E+00 0.000E+00 0.000E+00
BIGSUB  44        0 10.0.64719E+02  1600.686     0.000   780.895   555.374   239.067   304.572   361.824    80.591   812.427     2.707     1.005     0.174     1.679     0.079     0.173   370.011     5.092    11.138 .00000E+00 0.000E+00 0.000E+00
BIGSUB  45        0 10.0.34826E+02  1600.685     0.000   783.518   546.724   196.050   405.484   303.485   133.557   773.301     1.098     0.910     0.125     0.912     0.083     0.104   336.259     4.689    16.839 .00000E+00 0.000E+00 0.000E+00
BIGSUB  46        0 10.0.72145E+02  1558.987     0.000   709.571   455.908   214.107   335.864   426.211    85.299   966.828     1.274     0.245     0.033     1.100     0.078     0.110   455.319     3.083     1.412 .00000E+00 0.000E+00 0.000E+00
BIGSUB  47        0 10.0.41975E+02  1317.562     0.000   679.818   440.713   213.527   321.033   318.203    70.066   770.568     1.046     0.473     0.044     0.820     0.057     0.096   382.299     2.599     2.501 .00000E+00 0.000E+00 0.000E+00
BIGSUB  48        0 10.0.75111E+02  1748.972     0.000   796.884   548.797   216.026   388.125   393.360   143.373   947.366     0.457     1.199     0.176     1.865     0.069     0.062   410.633     2.412    14.045 .00000E+00 0.000E+00 0.000E+00
BIGSUB  49        0 10.0.62559E+02  1600.686     0.000   778.205   552.390   279.825   380.068   307.991   120.866   779.403     1.189     3.171     0.419     1.209     0.080     0.110   350.546     4.094    14.705 .00000E+00 0.000E+00 0.000E+00
BIGSUB  50        0 10.0.13206E+02   904.141     0.000   527.275   326.208   259.719   432.751   282.261   142.207   767.532     0.249     0.065     0.009     0.403     0.033     0.029   343.065     0.771     1.364 .00000E+00 0.000E+00 0.000E+00
BIGSUB  51        0 10.0.62476E+02  1643.988     0.000   779.353   569.160   184.264   525.522   247.688   213.555   754.075     2.166     9.591     1.178     0.709     0.083     0.126   292.833     3.844    24.446 .00000E+00 0.000E+00 0.000E+00
BIGSUB  52        0 10.0.48913E+02  1839.295     0.000   775.598   563.524   185.547   559.028   368.845   236.105   942.036     2.052    10.505     1.310     1.055     0.099     0.142   337.086     4.522    22.856 .00000E+00 0.000E+00 0.000E+00
BIGSUB  53        0 10.0.20311E+02  1839.295     0.000   770.185   535.315   229.531   593.732   391.150   265.028   964.331     1.305     0.601     0.063     1.493     0.099     0.112   308.153     1.879    17.044 .00000E+00 0.000E+00 0.000E+00
BIGSUB  54        0 10.0.46832E+01  1638.330     0.000   778.039   568.303   176.419   359.646   496.732   131.147   832.401     0.255     0.287     0.062     2.450     0.142     0.040   204.522     3.700    14.338 .00000E+00 0.000E+00 0.000E+00
BIGSUB  55        0 10.0.26708E+02  1787.592     0.000   776.784   545.085   206.707   358.236   461.102   105.972   979.825     2.961     0.559     0.117     1.695     0.115     0.181   412.750     5.537     7.582 .00000E+00 0.000E+00 0.000E+00
BIGSUB  56        0 10.0.11081E+02  1638.330     0.000   781.195   547.465   197.764   387.721   380.261   122.754   816.864     1.105     0.209     0.042     1.089     0.115     0.083   313.849     5.350    12.530 .00000E+00 0.000E+00 0.000E+00
BIGSUB  57        0 10.0.10080E+03  1748.972     0.000   793.249   549.578   254.941   408.015   449.481   148.894   930.600     2.371     3.856     0.462     1.928     0.083     0.170   332.226     3.082     9.819 .00000E+00 0.000E+00 0.000E+00
BIGSUB  58        0 10.0.86157E+01  1544.842     0.000   802.974   469.551   177.012   402.993   274.722   128.639   793.406     1.894     0.751     0.100     1.070     0.057     0.111   390.044     2.239     4.407 .00000E+00 0.000E+00 0.000E+00
BIGSUB  59        0 10.0.37346E+02  1684.527     0.000   792.536   532.694   205.071   372.180   334.219   110.034   879.385     0.704     0.141     0.019     0.944     0.089     0.065   435.132     4.260     5.167 .00000E+00 0.000E+00 0.000E+00
BIGSUB  60        0 10.0.23382E+02  1684.526     0.000   788.427   511.560   233.779   409.882   277.065   133.450   886.231     0.646     0.157     0.021     0.766     0.078     0.070   475.715     3.215     5.303 .00000E+00 0.000E+00 0.000E+00
BIGSUB  61        0 10.0.33369E+02  1839.295     0.000   774.749   535.401   325.489   313.644   199.631    74.113  1053.367     1.263    10.004     1.252     0.559     0.062     0.100   779.623    13.531    11.393 .00000E+00 0.000E+00 0.000E+00
BIGSUB  62        0 10.0.37395E+02  1638.330     0.000   785.561   542.346   196.520   386.531   346.180   119.056   819.473     1.970     0.384     0.089     0.979     0.107     0.126   354.237     6.026     9.452 .00000E+00 0.000E+00 0.000E+00
BIGSUB  63        0 10.0.14392E+02  1638.330     0.000   782.700   524.346   201.723   324.553   359.843    86.641   867.396     0.735     0.394     0.056     1.419     0.086     0.073   420.912     4.351     3.619 .00000E+00 0.000E+00 0.000E+00
BIGSUB  64        0 10.0.88344E+01  1544.842     0.000   800.169   537.154   141.517   326.014   277.402    91.559   766.392     0.631     0.372     0.065     1.256     0.053     0.070   397.431     2.131    10.369 .00000E+00 0.000E+00 0.000E+00
BIGSUB  65        0 10.0.46721E+02  1638.330     0.000   786.503   567.708   203.109   320.844   427.062    86.913   827.347     3.182     0.680     0.154     1.638     0.098     0.215   313.372     5.623    10.597 .00000E+00 0.000E+00 0.000E+00
BIGSUB  66        0 10.0.12051E+02  1544.842     0.000   799.722   596.792   133.647   311.983   494.902   117.238   744.664     0.057     0.143     0.054     2.507     0.074     0.003   132.524     0.451    18.860 .00000E+00 0.000E+00 0.000E+00
BIGSUB  67        0 10.0.11483E+03  1547.414     0.000   796.057   569.283   197.950   344.340   389.128   102.871   728.464     0.814     0.298     0.052     1.599     0.090     0.092   236.465     1.943    13.078 .00000E+00 0.000E+00 0.000E+00
BIGSUB  68        0 10.0.11905E+03  1610.554     0.000   794.818   530.037   135.319   250.127   249.233    48.112   871.366     0.398     0.232     0.042     1.153     0.043     0.052   574.022     3.193     9.237 .00000E+00 0.000E+00 0.000E+00
BIGSUB  69        0 10.0.31815E+02  1684.526     0.000   785.535   529.260   216.366   353.105   331.935    96.733   888.938     2.400     0.427     0.088     0.961     0.077     0.146   460.269     4.575     5.902 .00000E+00 0.000E+00 0.000E+00
BIGSUB  70        0 10.0.10822E+03  1684.526     0.000   781.493   545.124   231.742   366.074   386.752   116.268   877.711     2.419     1.252     0.185     1.471     0.093     0.154   374.691     5.357     8.351 .00000E+00 0.000E+00 0.000E+00
BIGSUB  71        0 10.0.62881E+02  1684.527     0.000   787.172   526.096   277.148   386.005   268.880   128.234   890.951     2.186     0.925     0.124     1.055     0.064     0.143   493.837     3.250     4.192 .00000E+00 0.000E+00 0.000E+00
BIGSUB  72        0 10.0.42820E+02  1536.531     0.000   802.745   591.752   178.186   400.342   422.793   147.699   684.114     0.281     0.113     0.032     1.855     0.091     0.027   113.622     0.656    16.807 .00000E+00 0.000E+00 0.000E+00
BIGSUB  73        0 10.0.49443E+02  1547.414     0.000   793.512   562.815   207.496   423.299   359.700   154.064   707.219     0.957     0.618     0.107     1.462     0.081     0.096   193.455     1.443    14.474 .00000E+00 0.000E+00 0.000E+00
BIGSUB  74        0 10.0.38520E+02  1641.003     0.000   793.878   536.396   148.692   311.523   280.442    85.071   870.521     0.846     0.271     0.059     1.058     0.075     0.078   505.007     3.729     7.451 .00000E+00 0.000E+00 0.000E+00
BIGSUB  75        0 10.0.37113E+02  1641.003     0.000   789.336   529.619   144.038   272.921   254.250    60.056   891.054     0.683     0.283     0.060     0.996     0.076     0.091   576.748     5.208    12.797 .00000E+00 0.000E+00 0.000E+00
BIGSUB  76        0 10.0.58326E+00  1641.003     0.000   992.220   739.019   190.200     2.202  1021.372     0.000  1027.996     0.685     0.980     0.197     5.192     0.084     0.112     6.624     0.363     0.000 .00000E+00 0.000E+00 0.000E+00
BIGSUB  77        0 10.0.19467E+02  1536.531     0.000   801.698   602.676   154.062   289.190   518.894    96.536   736.616     0.509     0.243     0.072     2.746     0.109     0.051   121.186     0.979    16.522 .00000E+00 0.000E+00 0.000E+00
BIGSUB  78        0 10.0.43317E+02  1641.003     0.000   791.014   540.890   138.252   252.196   352.755    56.672   897.965     1.056     0.998     0.163     1.707     0.066     0.126   488.538     5.174    10.062 .00000E+00 0.000E+00 0.000E+00
BIGSUB  79        0 10.0.38797E+02  1536.531     0.000   803.623   513.305   101.285   346.675   282.975    99.545   769.139     0.626     0.494     0.074     1.096     0.085     0.058   386.619     4.805    16.641 .00000E+00 0.000E+00 0.000E+00
BIGSUB  80        0 10.0.10345E+03  1642.540     0.000   788.173   548.397   137.967   259.974   281.353    57.908   884.354     1.708     0.404     0.086     1.273     0.064     0.139   545.094     4.300    11.295 .00000E+00 0.000E+00 0.000E+00
BIGSUB  81        0 10.0.62588E+02  1641.004     0.000   790.683   543.324   143.568   281.450   301.014    70.780   879.410     1.682     0.770     0.099     1.343     0.059     0.141   507.616     4.685     7.289 .00000E+00 0.000E+00 0.000E+00
BIGSUB  82        0 10.0.74560E+02  1642.541     0.000   790.998   553.513   152.291   261.718   330.722    59.379   878.482     1.144     0.278     0.063     1.313     0.116     0.093   488.382     5.676    11.629 .00000E+00 0.000E+00 0.000E+00
BIGSUB  83        0 10.0.13191E+03  1753.047     0.000   787.277   539.280   208.508   325.424   427.828    81.955   959.037     1.422     0.234     0.031     1.194     0.116     0.113   449.254     5.045     4.762 .00000E+00 0.000E+00 0.000E+00
BIGSUB  84        0 10.0.11269E+01  1753.083     0.000   774.482   630.576   184.395   383.430   696.734   156.313   886.278     0.356     0.558     0.091     3.616     0.209     0.044    33.231     1.099    29.869 .00000E+00 0.000E+00 0.000E+00
BIGSUB  85        0 10.0.35557E+02  1753.082     0.000   787.245   524.111   211.340   462.737   340.906   172.071   927.965     0.897     1.346     0.167     0.929     0.102     0.081   414.988     4.082     8.569 .00000E+00 0.000E+00 0.000E+00
BIGSUB  86        0 10.0.38828E+02  1753.082     0.000   788.890   555.432   212.134   446.423   370.851   162.361   903.438     2.256     9.125     1.119     1.016     0.083     0.157   370.226     4.206     9.784 .00000E+00 0.000E+00 0.000E+00
BIGSUB  87        0 10.0.91374E+02  1585.897     0.000   804.755   597.463   162.390   366.655   540.272   131.029   745.602     0.774     0.291     0.073     2.265     0.142     0.080    74.300     0.896    17.160 .00000E+00 0.000E+00 0.000E+00
BIGSUB  88        0 10.0.54194E+01  1454.742     0.000   736.902   507.704   100.530   340.576   408.327   117.339   804.676     1.322     1.225     0.203     1.817     0.084     0.107   279.010     2.818    31.700 .00000E+00 0.000E+00 0.000E+00
BIGSUB  89        0 10.0.71370E+02  1555.063     0.000   799.323   554.661   148.943   310.007   419.267    92.708   785.769     1.804     0.902     0.118     1.875     0.072     0.155   273.794     3.036     9.940 .00000E+00 0.000E+00 0.000E+00
BIGSUB  90        0 10.0.61485E+02  1610.554     0.000   791.630   589.462   155.591   389.688   465.366   146.008   769.382     0.698     0.536     0.080     2.151     0.083     0.078   158.008     1.534    18.330 .00000E+00 0.000E+00 0.000E+00
BIGSUB  91        0 10.0.11223E+02  1546.803     0.000   791.330   601.615   162.857   257.501   583.876    85.534   779.917     1.614     0.976     0.165     3.481     0.088     0.160   110.508     0.575    15.223 .00000E+00 0.000E+00 0.000E+00
BIGSUB  92        0 10.0.78137E+01  1433.135     0.000   797.617   592.269   207.771   255.782   623.417    92.216   796.573     1.965     0.697     0.151     3.269     0.086     0.179    80.940     0.651     9.464 .00000E+00 0.000E+00 0.000E+00
BIGSUB  93        0 10.0.67786E+01  1297.833     0.000   725.669   508.799   144.447   274.184   418.477    73.752   816.388     1.129     0.485     0.101     1.466     0.079     0.107   324.159     1.835    10.902 .00000E+00 0.000E+00 0.000E+00
BIGSUB  94        0 10.0.37875E+02  1507.466     0.000   772.126   536.405   162.126   260.754   505.636    82.617   827.971     0.592     0.270     0.077     2.536     0.070     0.063   239.719     1.068     7.046 .00000E+00 0.000E+00 0.000E+00
BIGSUB  95        0 10.0.40310E+02  1642.541     0.000   788.001   549.895   155.462   276.274   393.459    84.362   892.525     0.431     0.345     0.066     1.858     0.106     0.058   414.705     2.818    15.583 .00000E+00 0.000E+00 0.000E+00
BIGSUB  96        0 10.0.17065E+03  1641.003     0.000   794.861   538.091   334.128   415.395   272.877   149.719   827.676     1.812     5.453     0.725     1.171     0.066     0.138   405.081     3.430    14.022 .00000E+00 0.000E+00 0.000E+00
BIGSUB  97        0 10.0.51076E+02  2013.559     0.000   775.755   535.969   229.424   617.861   470.876   276.937  1124.338     2.078     0.466     0.098     1.456     0.132     0.151   376.525     3.015    19.300 .00000E+00 0.000E+00 0.000E+00
BIGSUB  98        0 10.0.15080E+03  2203.463     0.000   775.565   535.213   175.956   408.339   647.936   141.200  1397.327     2.275     0.500     0.091     2.255     0.131     0.194   608.191     4.464    13.245 .00000E+00 0.000E+00 0.000E+00
BIGSUB  99        0 10.0.10077E+03  2013.560     0.000   776.565   532.112   215.822   438.971   581.944   164.367  1194.573     1.705     2.671     0.339     2.023     0.118     0.150   448.262     3.620     6.376 .00000E+00 0.000E+00 0.000E+00
