1
    SWAT Jun 01 2011    VER 2009/Rev. 481                                                                0/ 0/   0      0: 0: 0

    General Input/Output section (file.cio):                                        
    2013/12/18 0:00:00 ARCGIS-SWAT interface AV                                     
                                                                                    


           RES  MON    VOLUMEm3  FLOW_INcms FLOW_OUTcms    PRECIPm3      EVAPm3   SEEPAGEm3  SED_INtons SED_OUTtons SED_CONCppm   ORGN_INkg  ORGN_OUTkg RES_ORGNppm   ORGP_INkg  ORGP_OUTkg RES_ORGPppm    NO3_INkg   NO3_OUTkg  RES_NO3ppm    NO2_INkg   NO2_OUTkg  RES_NO2ppm    NH3_INkg   NH3_OUTkg  RES_NH3ppm   MINP_INkg  MINP_OUTkg RES_MINPppm   CHLA_INkg  CHLA_OUTkgSECCHIDEPTHm   PEST_INmg  REACTPSTmg    VOLPSTmg  SETTLPSTmgRESUSP_PSTmgDIFFUSEPSTmgREACBEDPSTmg   BURYPSTmg  PEST_OUTmgPSTCNCWmg/m3PSTCNCBmg/m3
RES          1    1  0.1435E+08  0.9922E+01  0.4611E+01  0.2901E+05  0.4673E+04  0.0000E+00  0.1450E+06  0.1430E+03  0.2533E+02  0.4076E+05  0.1681E+05  0.6226E+00  0.5191E+04  0.2080E+04  0.7170E-01  0.8881E+05  0.3020E+05  0.7874E+00  0.0000E+00  0.0000E+00  0.0000E+00  0.1524E+05  0.6032E+04  0.2156E+00  0.1385E+05  0.5562E+04  0.1924E+00  0.0000E+00  0.8245E+03  0.7791E+00  0.0000E+00  0.0000E+00  0.0000E+00  0.0000E+00  0.0000E+00  0.0000E+00  0.0000E+00  0.0000E+00  0.0000E+00  0.0000E+00  0.0000E+00
RES          1    2  0.0000E+00  0.1721E+02  0.2314E+02  0.1789E+05  0.1074E+05  0.0000E+00  0.8379E+04  0.1047E+03  0.1567E+01  0.3087E+04  0.2325E+05  0.3342E+00  0.4353E+03  0.2968E+04  0.4270E-01  0.5841E+05  0.9705E+05  0.1330E+01  0.0000E+00  0.0000E+00  0.0000E+00  0.4543E+04  0.9676E+04  0.1367E+00  0.8083E+03  0.7850E+04  0.1130E+00  0.0000E+00  0.1463E+04  0.0000E+00  0.0000E+00  0.0000E+00  0.0000E+00  0.0000E+00  0.0000E+00  0.0000E+00  0.0000E+00  0.0000E+00  0.0000E+00  0.0000E+00  0.0000E+00
RES          1    3  0.9733E+07  0.2406E+02  0.2044E+02  0.5412E+05  0.1363E+05  0.0000E+00  0.1780E+06  0.7233E+04  0.1099E+03  0.8036E+05  0.7211E+05  0.9298E+00  0.5353E+04  0.4706E+04  0.6097E-01  0.1007E+06  0.6424E+05  0.7027E+00  0.0000E+00  0.0000E+00  0.0000E+00  0.3400E+05  0.2857E+05  0.3657E+00  0.1866E+05  0.1638E+05  0.2059E+00  0.0000E+00  0.2406E+04  0.1215E+01  0.0000E+00  0.0000E+00  0.0000E+00  0.0000E+00  0.0000E+00  0.0000E+00  0.0000E+00  0.0000E+00  0.0000E+00  0.0000E+00  0.0000E+00
RES          1    4  0.4064E+08  0.4158E+02  0.2980E+02  0.4556E+06  0.7351E+05  0.0000E+00  0.1629E+05  0.1138E+03  0.1473E+01  0.1139E+05  0.1360E+05  0.1799E+00  0.9273E+03  0.9997E+03  0.1326E-01  0.2344E+06  0.1623E+06  0.2086E+01  0.0000E+00  0.0000E+00  0.0000E+00  0.6777E+04  0.7185E+04  0.9538E-01  0.3680E+04  0.4135E+04  0.5565E-01  0.0000E+00  0.1009E+04  0.2361E+01  0.0000E+00  0.0000E+00  0.0000E+00  0.0000E+00  0.0000E+00  0.0000E+00  0.0000E+00  0.0000E+00  0.0000E+00  0.0000E+00  0.0000E+00
RES          1    5  0.6590E+08  0.6770E+02  0.5848E+02  0.7101E+06  0.1480E+06  0.0000E+00  0.5917E+05  0.1267E+04  0.7252E+01  0.1732E+05  0.1501E+05  0.9954E-01  0.1026E+04  0.9898E+03  0.6481E-02  0.3940E+06  0.3449E+06  0.2160E+01  0.0000E+00  0.0000E+00  0.0000E+00  0.7853E+04  0.7307E+04  0.4750E-01  0.9083E+04  0.6765E+04  0.4504E-01  0.5015E+02  0.1615E+04  0.2016E+01  0.0000E+00  0.0000E+00  0.0000E+00  0.0000E+00  0.0000E+00  0.0000E+00  0.0000E+00  0.0000E+00  0.0000E+00  0.0000E+00  0.0000E+00
RES          1    6  0.9548E+08  0.7475E+02  0.6370E+02  0.1188E+07  0.2451E+06  0.0000E+00  0.1628E+05  0.1654E+03  0.1002E+01  0.4415E+04  0.7611E+04  0.4710E-01  0.4183E+03  0.5157E+03  0.3177E-02  0.4588E+06  0.3672E+06  0.2219E+01  0.0000E+00  0.0000E+00  0.0000E+00  0.3301E+04  0.4201E+04  0.2572E-01  0.2890E+04  0.4363E+04  0.2691E-01  0.1808E+02  0.1183E+04  0.2958E+01  0.0000E+00  0.0000E+00  0.0000E+00  0.0000E+00  0.0000E+00  0.0000E+00  0.0000E+00  0.0000E+00  0.0000E+00  0.0000E+00  0.0000E+00
RES          1    7  0.8270E+08  0.5859E+02  0.6348E+02  0.6744E+06  0.3459E+06  0.0000E+00  0.1215E+05  0.1706E+03  0.1003E+01  0.8373E+04  0.7783E+04  0.4599E-01  0.5007E+03  0.4955E+03  0.2915E-02  0.2350E+06  0.3132E+06  0.1818E+01  0.0000E+00  0.0000E+00  0.0000E+00  0.5572E+04  0.4707E+04  0.2808E-01  0.3561E+04  0.3660E+04  0.2148E-01  0.2574E+02  0.1057E+04  0.2978E+01  0.0000E+00  0.0000E+00  0.0000E+00  0.0000E+00  0.0000E+00  0.0000E+00  0.0000E+00  0.0000E+00  0.0000E+00  0.0000E+00  0.0000E+00
RES          1    8  0.6429E+08  0.5093E+02  0.5797E+02  0.7192E+06  0.2820E+06  0.0000E+00  0.9686E+04  0.1746E+03  0.1079E+01  0.5120E+04  0.5028E+04  0.3161E-01  0.3953E+03  0.3229E+03  0.2062E-02  0.9931E+05  0.1918E+06  0.1162E+01  0.0000E+00  0.0000E+00  0.0000E+00  0.4269E+04  0.4390E+04  0.2841E-01  0.2148E+04  0.2033E+04  0.1271E-01  0.1473E+02  0.6741E+03  0.2650E+01  0.0000E+00  0.0000E+00  0.0000E+00  0.0000E+00  0.0000E+00  0.0000E+00  0.0000E+00  0.0000E+00  0.0000E+00  0.0000E+00  0.0000E+00
RES          1    9  0.1664E+09  0.1011E+03  0.6200E+02  0.1088E+07  0.3391E+06  0.0000E+00  0.3270E+05  0.1609E+03  0.1001E+01  0.1694E+05  0.1124E+05  0.6895E-01  0.1137E+04  0.7751E+03  0.4777E-02  0.1562E+06  0.8545E+05  0.5370E+00  0.0000E+00  0.0000E+00  0.0000E+00  0.1061E+05  0.6965E+04  0.4271E-01  0.1051E+05  0.6629E+04  0.4054E-01  0.2121E+03  0.1623E+04  0.2405E+01  0.0000E+00  0.0000E+00  0.0000E+00  0.0000E+00  0.0000E+00  0.0000E+00  0.0000E+00  0.0000E+00  0.0000E+00  0.0000E+00  0.0000E+00
RES          1   10  0.1083E+09  0.1988E+02  0.4152E+02  0.4268E+05  0.2741E+06  0.0000E+00  0.2065E+04  0.1115E+03  0.1003E+01  0.3100E+03  0.4611E+04  0.4108E-01  0.1302E+01  0.3025E+03  0.2689E-02  0.4289E+05  0.7622E+05  0.6849E+00  0.0000E+00  0.0000E+00  0.0000E+00  0.4680E+04  0.4533E+04  0.4131E-01  0.5017E+02  0.2647E+04  0.2354E-01  0.0000E+00  0.7391E+03  0.2801E+01  0.0000E+00  0.0000E+00  0.0000E+00  0.0000E+00  0.0000E+00  0.0000E+00  0.0000E+00  0.0000E+00  0.0000E+00  0.0000E+00  0.0000E+00
RES          1   11  0.4940E+08  0.1084E+02  0.3350E+02  0.1771E+04  0.1227E+06  0.0000E+00  0.1044E+04  0.8727E+02  0.1005E+01  0.3034E+03  0.2676E+04  0.3055E-01  0.1631E+01  0.1580E+03  0.1794E-02  0.1244E+05  0.5406E+05  0.6191E+00  0.0000E+00  0.0000E+00  0.0000E+00  0.3544E+04  0.5188E+04  0.6065E-01  0.2910E+02  0.1395E+04  0.1584E-01  0.0000E+00  0.4276E+03  0.3271E+01  0.0000E+00  0.0000E+00  0.0000E+00  0.0000E+00  0.0000E+00  0.0000E+00  0.0000E+00  0.0000E+00  0.0000E+00  0.0000E+00  0.0000E+00
RES          1   12  0.0000E+00  0.2589E+01  0.2104E+02  0.5263E+05  0.3575E+05  0.0000E+00  0.2125E+03  0.6185E+02  0.1064E+01  0.2423E+03  0.1453E+04  0.1924E-01  0.2227E+02  0.8565E+02  0.1119E-02  0.3323E+04  0.2902E+05  0.3881E+00  0.0000E+00  0.0000E+00  0.0000E+00  0.8617E+03  0.4195E+04  0.5569E-01  0.3508E+02  0.6084E+03  0.8177E-02  0.0000E+00  0.2064E+03  0.0000E+00  0.0000E+00  0.0000E+00  0.0000E+00  0.0000E+00  0.0000E+00  0.0000E+00  0.0000E+00  0.0000E+00  0.0000E+00  0.0000E+00  0.0000E+00
RES          1 2001  0.0000E+00  0.3993E+02  0.4003E+02  0.5033E+07  0.1895E+07  0.0000E+00  0.4810E+06  0.9793E+04  0.1294E+02  0.1886E+06  0.1812E+06  0.2045E+00  0.1541E+05  0.1440E+05  0.1773E-01  0.1884E+07  0.1816E+07  0.1205E+01  0.0000E+00  0.0000E+00  0.0000E+00  0.1013E+06  0.9295E+05  0.9537E-01  0.6531E+05  0.6203E+05  0.6334E-01  0.3207E+03  0.1323E+05  0.0000E+00  0.0000E+00  0.0000E+00  0.0000E+00  0.0000E+00  0.0000E+00  0.0000E+00  0.0000E+00  0.0000E+00  0.0000E+00  0.0000E+00  0.0000E+00
RES          1    1  0.0000E+00  0.9389E+01  0.9390E+01  0.3306E+04  0.1444E+04  0.0000E+00  0.1171E+04  0.1481E+03  0.4280E+01  0.2745E+04  0.1840E+04  0.5287E-01  0.3854E+03  0.2721E+03  0.7848E-02  0.9425E+04  0.3310E+04  0.8916E-01  0.0000E+00  0.0000E+00  0.0000E+00  0.2769E+04  0.1028E+04  0.2881E-01  0.3131E+03  0.1513E+03  0.4448E-02  0.0000E+00  0.8772E+02  0.0000E+00  0.0000E+00  0.0000E+00  0.0000E+00  0.0000E+00  0.0000E+00  0.0000E+00  0.0000E+00  0.0000E+00  0.0000E+00  0.0000E+00  0.0000E+00
RES          1    2  0.0000E+00  0.5503E+01  0.5502E+01  0.6703E+03  0.2863E+04  0.0000E+00  0.4712E+03  0.7981E+02  0.4300E+01  0.2545E+03  0.1361E+03  0.1305E-01  0.2253E+02  0.1337E+02  0.1339E-02  0.1541E+05  0.6999E+04  0.5694E+00  0.0000E+00  0.0000E+00  0.0000E+00  0.1124E+04  0.3674E+03  0.3332E-01  0.4721E+02  0.2335E+02  0.1595E-02  0.0000E+00  0.1273E+02  0.0000E+00  0.0000E+00  0.0000E+00  0.0000E+00  0.0000E+00  0.0000E+00  0.0000E+00  0.0000E+00  0.0000E+00  0.0000E+00  0.0000E+00  0.0000E+00
RES          1    3  0.3653E+07  0.8298E+01  0.6935E+01  0.5143E+04  0.3446E+04  0.0000E+00  0.1824E+04  0.6147E+03  0.1888E+02  0.1421E+04  0.7817E+03  0.2458E-01  0.1680E+03  0.9467E+02  0.2933E-02  0.4940E+05  0.2244E+05  0.6339E+00  0.0000E+00  0.0000E+00  0.0000E+00  0.1094E+04  0.3287E+03  0.1049E-01  0.6389E+03  0.3484E+03  0.1095E-01  0.0000E+00  0.9394E+02  0.2692E+01  0.0000E+00  0.0000E+00  0.0000E+00  0.0000E+00  0.0000E+00  0.0000E+00  0.0000E+00  0.0000E+00  0.0000E+00  0.0000E+00  0.0000E+00
RES          1    4  0.4728E+08  0.3938E+02  0.2257E+02  0.1635E+06  0.1202E+06  0.0000E+00  0.2085E+05  0.6385E+02  0.1103E+01  0.1452E+05  0.8403E+04  0.1431E+00  0.1153E+04  0.6650E+03  0.1133E-01  0.9722E+05  0.6105E+05  0.1098E+01  0.0000E+00  0.0000E+00  0.0000E+00  0.5047E+04  0.2665E+04  0.4413E-01  0.5717E+04  0.3277E+04  0.5564E-01  0.4245E+02  0.7705E+03  0.1962E+01  0.0000E+00  0.0000E+00  0.0000E+00  0.0000E+00  0.0000E+00  0.0000E+00  0.0000E+00  0.0000E+00  0.0000E+00  0.0000E+00  0.0000E+00
RES          1    5  0.7459E+07  0.1915E+02  0.3406E+02  0.2762E+06  0.1415E+06  0.0000E+00  0.3741E+04  0.9705E+02  0.1041E+01  0.1243E+04  0.6725E+04  0.7684E-01  0.1043E+03  0.5181E+03  0.5922E-02  0.3584E+05  0.7137E+05  0.7925E+00  0.0000E+00  0.0000E+00  0.0000E+00  0.2566E+04  0.4427E+04  0.4922E-01  0.6629E+03  0.2705E+04  0.3072E-01  0.0000E+00  0.7460E+03  0.3049E+01  0.0000E+00  0.0000E+00  0.0000E+00  0.0000E+00  0.0000E+00  0.0000E+00  0.0000E+00  0.0000E+00  0.0000E+00  0.0000E+00  0.0000E+00
RES          1    6  0.1235E+09  0.5879E+02  0.1407E+02  0.3220E+06  0.1645E+06  0.0000E+00  0.9514E+04  0.7012E+02  0.1363E+01  0.9657E+04  0.9922E+03  0.5662E-01  0.7992E+03  0.7147E+02  0.4520E-02  0.8497E+05  0.1807E+05  0.4920E+00  0.0000E+00  0.0000E+00  0.0000E+00  0.7286E+04  0.2821E+04  0.6032E-01  0.2717E+04  0.3220E+03  0.1819E-01  0.3032E+02  0.1117E+03  0.2634E+01  0.0000E+00  0.0000E+00  0.0000E+00  0.0000E+00  0.0000E+00  0.0000E+00  0.0000E+00  0.0000E+00  0.0000E+00  0.0000E+00  0.0000E+00
RES          1    7  0.1449E+09  0.6103E+02  0.5348E+02  0.1620E+07  0.4807E+06  0.0000E+00  0.1245E+05  0.1436E+03  0.1001E+01  0.8434E+04  0.8926E+04  0.6335E-01  0.6846E+03  0.7244E+03  0.5153E-02  0.1481E+06  0.9901E+05  0.6684E+00  0.0000E+00  0.0000E+00  0.0000E+00  0.5289E+04  0.5146E+04  0.3636E-01  0.3511E+04  0.2978E+04  0.2061E-01  0.2859E+02  0.9344E+03  0.2711E+01  0.0000E+00  0.0000E+00  0.0000E+00  0.0000E+00  0.0000E+00  0.0000E+00  0.0000E+00  0.0000E+00  0.0000E+00  0.0000E+00  0.0000E+00
RES          1    8  0.3329E+09  0.1595E+03  0.9013E+02  0.2918E+07  0.6984E+06  0.0000E+00  0.6326E+05  0.2418E+03  0.1001E+01  0.4325E+05  0.2244E+05  0.9265E-01  0.3704E+04  0.1881E+04  0.7747E-02  0.2496E+06  0.1411E+06  0.5859E+00  0.0000E+00  0.0000E+00  0.0000E+00  0.2073E+05  0.1111E+05  0.4602E-01  0.2057E+05  0.1009E+05  0.4167E-01  0.2943E+04  0.2571E+04  0.2142E+01  0.0000E+00  0.0000E+00  0.0000E+00  0.0000E+00  0.0000E+00  0.0000E+00  0.0000E+00  0.0000E+00  0.0000E+00  0.0000E+00  0.0000E+00
RES          1    9  0.2647E+09  0.4493E+02  0.7167E+02  0.1569E+07  0.4693E+06  0.0000E+00  0.4727E+04  0.1862E+03  0.1002E+01  0.2109E+04  0.1370E+05  0.7101E-01  0.1485E+03  0.1134E+04  0.5853E-02  0.1195E+06  0.1350E+06  0.7349E+00  0.0000E+00  0.0000E+00  0.0000E+00  0.1934E+04  0.6960E+04  0.3643E-01  0.9820E+03  0.6154E+04  0.3184E-01  0.0000E+00  0.1663E+04  0.2433E+01  0.0000E+00  0.0000E+00  0.0000E+00  0.0000E+00  0.0000E+00  0.0000E+00  0.0000E+00  0.0000E+00  0.0000E+00  0.0000E+00  0.0000E+00
RES          1   10  0.2289E+09  0.1488E+02  0.2829E+02  0.4588E+06  0.3500E+06  0.0000E+00  0.1275E+04  0.7585E+02  0.1001E+01  0.9395E+03  0.4235E+04  0.5609E-01  0.6957E+02  0.3368E+03  0.4466E-02  0.3744E+05  0.5830E+05  0.7699E+00  0.0000E+00  0.0000E+00  0.0000E+00  0.1297E+04  0.2432E+04  0.3210E-01  0.2976E+03  0.1848E+04  0.2453E-01  0.0000E+00  0.5372E+03  0.2572E+01  0.0000E+00  0.0000E+00  0.0000E+00  0.0000E+00  0.0000E+00  0.0000E+00  0.0000E+00  0.0000E+00  0.0000E+00  0.0000E+00  0.0000E+00
RES          1   11  0.1850E+09  0.1174E+02  0.2870E+02  0.3101E+06  0.2097E+06  0.0000E+00  0.9646E+03  0.7450E+02  0.1001E+01  0.5942E+03  0.3767E+04  0.5038E-01  0.3932E+02  0.2922E+03  0.3903E-02  0.2684E+05  0.5677E+05  0.7635E+00  0.0000E+00  0.0000E+00  0.0000E+00  0.1698E+04  0.2467E+04  0.3324E-01  0.1901E+03  0.1578E+04  0.2109E-01  0.0000E+00  0.4752E+03  0.2718E+01  0.0000E+00  0.0000E+00  0.0000E+00  0.0000E+00  0.0000E+00  0.0000E+00  0.0000E+00  0.0000E+00  0.0000E+00  0.0000E+00  0.0000E+00
RES          1   12  0.1679E+09  0.2090E+02  0.2745E+02  0.5858E+06  0.1422E+06  0.0000E+00  0.2312E+04  0.7360E+02  0.1001E+01  0.2778E+04  0.3322E+04  0.4533E-01  0.3184E+03  0.2572E+03  0.3529E-02  0.4899E+05  0.5574E+05  0.7584E+00  0.0000E+00  0.0000E+00  0.0000E+00  0.1973E+04  0.2477E+04  0.3370E-01  0.8657E+03  0.1375E+04  0.1866E-01  0.0000E+00  0.4273E+03  0.2789E+01  0.0000E+00  0.0000E+00  0.0000E+00  0.0000E+00  0.0000E+00  0.0000E+00  0.0000E+00  0.0000E+00  0.0000E+00  0.0000E+00  0.0000E+00
RES          1 2002  0.1679E+09  0.3805E+02  0.3289E+02  0.8233E+07  0.2784E+07  0.0000E+00  0.1226E+06  0.1869E+04  0.3092E+01  0.8794E+05  0.7527E+05  0.6236E-01  0.7596E+04  0.6260E+04  0.5401E-02  0.9227E+06  0.7291E+06  0.6626E+00  0.0000E+00  0.0000E+00  0.0000E+00  0.5281E+05  0.4223E+05  0.3697E-01  0.3652E+05  0.3085E+05  0.2342E-01  0.3044E+04  0.8431E+04  0.2789E+01  0.0000E+00  0.0000E+00  0.0000E+00  0.0000E+00  0.0000E+00  0.0000E+00  0.0000E+00  0.0000E+00  0.0000E+00  0.0000E+00  0.0000E+00
RES          1    1  0.1722E+09  0.2020E+02  0.1874E+02  0.4956E+06  0.1226E+06  0.0000E+00  0.2309E+04  0.5025E+02  0.1001E+01  0.1133E+04  0.2184E+04  0.4324E-01  0.1157E+03  0.1902E+03  0.3773E-02  0.6554E+05  0.4115E+05  0.8241E+00  0.0000E+00  0.0000E+00  0.0000E+00  0.2155E+04  0.1731E+04  0.3445E-01  0.5242E+03  0.7935E+03  0.1575E-01  0.0000E+00  0.2653E+03  0.2979E+01  0.0000E+00  0.0000E+00  0.0000E+00  0.0000E+00  0.0000E+00  0.0000E+00  0.0000E+00  0.0000E+00  0.0000E+00  0.0000E+00  0.0000E+00
RES          1    2  0.1492E+09  0.1563E+02  0.2511E+02  0.1065E+06  0.1586E+06  0.0000E+00  0.1334E+04  0.6087E+02  0.1001E+01  0.6037E+03  0.2147E+04  0.3619E-01  0.3894E+02  0.1821E+03  0.3093E-02  0.4361E+05  0.5446E+05  0.8891E+00  0.0000E+00  0.0000E+00  0.0000E+00  0.2185E+04  0.2225E+04  0.3616E-01  0.2107E+03  0.7852E+03  0.1329E-01  0.0000E+00  0.2742E+03  0.3180E+01  0.0000E+00  0.0000E+00  0.0000E+00  0.0000E+00  0.0000E+00  0.0000E+00  0.0000E+00  0.0000E+00  0.0000E+00  0.0000E+00  0.0000E+00
RES          1    3  0.9881E+08  0.1255E+02  0.3145E+02  0.3869E+06  0.1600E+06  0.0000E+00  0.1383E+04  0.8448E+02  0.1003E+01  0.1308E+04  0.2930E+04  0.3467E-01  0.1263E+03  0.2503E+03  0.2961E-02  0.4084E+05  0.7878E+05  0.9378E+00  0.0000E+00  0.0000E+00  0.0000E+00  0.1795E+04  0.3313E+04  0.3942E-01  0.4511E+03  0.1044E+04  0.1233E-01  0.0000E+00  0.3700E+03  0.3246E+01  0.0000E+00  0.0000E+00  0.0000E+00  0.0000E+00  0.0000E+00  0.0000E+00  0.0000E+00  0.0000E+00  0.0000E+00  0.0000E+00  0.0000E+00
RES          1    4  0.1116E+09  0.2308E+02  0.1833E+02  0.6530E+06  0.2063E+06  0.0000E+00  0.6876E+04  0.4760E+02  0.1001E+01  0.1106E+05  0.4003E+04  0.7087E-01  0.1175E+04  0.3972E+03  0.6898E-02  0.5930E+05  0.4223E+05  0.9008E+00  0.0000E+00  0.0000E+00  0.0000E+00  0.3094E+04  0.2098E+04  0.4321E-01  0.2305E+04  0.9659E+03  0.1790E-01  0.2105E+00  0.3331E+03  0.2482E+01  0.0000E+00  0.0000E+00  0.0000E+00  0.0000E+00  0.0000E+00  0.0000E+00  0.0000E+00  0.0000E+00  0.0000E+00  0.0000E+00  0.0000E+00
RES          1    5  0.1100E+09  0.3615E+02  0.3681E+02  0.5239E+06  0.3019E+06  0.0000E+00  0.1569E+05  0.9891E+02  0.1002E+01  0.1093E+05  0.9970E+04  0.9585E-01  0.7769E+03  0.8490E+03  0.8544E-02  0.5447E+05  0.7608E+05  0.8326E+00  0.0000E+00  0.0000E+00  0.0000E+00  0.5995E+04  0.5138E+04  0.5033E-01  0.5796E+04  0.3655E+04  0.3122E-01  0.7627E+02  0.9864E+03  0.2122E+01  0.0000E+00  0.0000E+00  0.0000E+00  0.0000E+00  0.0000E+00  0.0000E+00  0.0000E+00  0.0000E+00  0.0000E+00  0.0000E+00  0.0000E+00
RES          1    6  0.1011E+09  0.4774E+02  0.5150E+02  0.1103E+07  0.2805E+06  0.0000E+00  0.7964E+04  0.1342E+03  0.1003E+01  0.3772E+04  0.9013E+04  0.7430E-01  0.3261E+03  0.7326E+03  0.6034E-02  0.1076E+06  0.9859E+05  0.7259E+00  0.0000E+00  0.0000E+00  0.0000E+00  0.2596E+04  0.5022E+04  0.4085E-01  0.2131E+04  0.3841E+04  0.3065E-01  0.5645E+01  0.1077E+04  0.2588E+01  0.0000E+00  0.0000E+00  0.0000E+00  0.0000E+00  0.0000E+00  0.0000E+00  0.0000E+00  0.0000E+00  0.0000E+00  0.0000E+00  0.0000E+00
RES          1    7  0.1915E+08  0.8298E+01  0.3877E+02  0.0000E+00  0.3250E+06  0.0000E+00  0.7412E+03  0.1051E+03  0.1011E+01  0.6299E+02  0.4378E+04  0.3987E-01  0.2034E+01  0.3484E+03  0.3146E-02  0.3389E+05  0.1005E+06  0.9750E+00  0.0000E+00  0.0000E+00  0.0000E+00  0.4238E+03  0.2738E+04  0.2614E-01  0.8052E+02  0.2000E+04  0.1824E-01  0.0000E+00  0.6115E+03  0.3046E+01  0.0000E+00  0.0000E+00  0.0000E+00  0.0000E+00  0.0000E+00  0.0000E+00  0.0000E+00  0.0000E+00  0.0000E+00  0.0000E+00  0.0000E+00
RES          1    8  0.1480E+09  0.9414E+02  0.4652E+02  0.1756E+07  0.4093E+06  0.0000E+00  0.3041E+05  0.1249E+03  0.1002E+01  0.1436E+05  0.6743E+04  0.5050E-01  0.1138E+04  0.5405E+03  0.4192E-02  0.9756E+05  0.5137E+05  0.4480E+00  0.0000E+00  0.0000E+00  0.0000E+00  0.7984E+04  0.3826E+04  0.2939E-01  0.9832E+04  0.4368E+04  0.3116E-01  0.2293E+03  0.1115E+04  0.2210E+01  0.0000E+00  0.0000E+00  0.0000E+00  0.0000E+00  0.0000E+00  0.0000E+00  0.0000E+00  0.0000E+00  0.0000E+00  0.0000E+00  0.0000E+00
RES          1    9  0.2106E+09  0.6857E+02  0.4467E+02  0.1023E+07  0.3961E+06  0.0000E+00  0.1764E+05  0.1159E+03  0.1001E+01  0.1123E+05  0.6206E+04  0.5231E-01  0.1088E+04  0.5097E+03  0.4295E-02  0.9994E+05  0.5374E+05  0.4715E+00  0.0000E+00  0.0000E+00  0.0000E+00  0.5884E+04  0.3497E+04  0.2967E-01  0.5456E+04  0.3822E+04  0.3224E-01  0.2638E+03  0.9994E+03  0.2279E+01  0.0000E+00  0.0000E+00  0.0000E+00  0.0000E+00  0.0000E+00  0.0000E+00  0.0000E+00  0.0000E+00  0.0000E+00  0.0000E+00  0.0000E+00
RES          1   10  0.1980E+09  0.2840E+02  0.3323E+02  0.6776E+06  0.3581E+06  0.0000E+00  0.4164E+04  0.8909E+02  0.1001E+01  0.8305E+03  0.4617E+04  0.5104E-01  0.7779E+02  0.4131E+03  0.4565E-02  0.7704E+05  0.5271E+05  0.5999E+00  0.0000E+00  0.0000E+00  0.0000E+00  0.3201E+04  0.2995E+04  0.3387E-01  0.6291E+03  0.2489E+04  0.2754E-01  0.0000E+00  0.6923E+03  0.2557E+01  0.0000E+00  0.0000E+00  0.0000E+00  0.0000E+00  0.0000E+00  0.0000E+00  0.0000E+00  0.0000E+00  0.0000E+00  0.0000E+00  0.0000E+00
RES          1   11  0.1566E+09  0.9950E+01  0.2590E+02  0.1551E+06  0.2286E+06  0.0000E+00  0.1006E+04  0.6724E+02  0.1001E+01  0.3794E+03  0.2748E+04  0.4106E-01  0.2014E+02  0.2370E+03  0.3545E-02  0.1737E+05  0.4279E+05  0.6378E+00  0.0000E+00  0.0000E+00  0.0000E+00  0.2130E+04  0.2502E+04  0.3713E-01  0.1204E+03  0.1450E+04  0.2170E-01  0.0000E+00  0.4287E+03  0.2712E+01  0.0000E+00  0.0000E+00  0.0000E+00  0.0000E+00  0.0000E+00  0.0000E+00  0.0000E+00  0.0000E+00  0.0000E+00  0.0000E+00  0.0000E+00
RES          1   12  0.1291E+09  0.7749E+01  0.1797E+02  0.0000E+00  0.1454E+06  0.0000E+00  0.7456E+03  0.4820E+02  0.1001E+01  0.2630E+03  0.1760E+04  0.3646E-01  0.1317E+00  0.1435E+03  0.2967E-02  0.7151E+04  0.2886E+05  0.5982E+00  0.0000E+00  0.0000E+00  0.0000E+00  0.3063E+04  0.2204E+04  0.4617E-01  0.1701E+02  0.8795E+03  0.1819E-01  0.0000E+00  0.2706E+03  0.2914E+01  0.0000E+00  0.0000E+00  0.0000E+00  0.0000E+00  0.0000E+00  0.0000E+00  0.0000E+00  0.0000E+00  0.0000E+00  0.0000E+00  0.0000E+00
RES          1 2003  0.1291E+09  0.3109E+02  0.3245E+02  0.6880E+07  0.3092E+07  0.0000E+00  0.9027E+05  0.1027E+04  0.1002E+01  0.5594E+05  0.5670E+05  0.5225E-01  0.4886E+04  0.4794E+04  0.4505E-02  0.7044E+06  0.7213E+06  0.7361E+00  0.0000E+00  0.0000E+00  0.0000E+00  0.4051E+05  0.3729E+05  0.3724E-01  0.2755E+05  0.2609E+05  0.2256E-01  0.5752E+03  0.7423E+04  0.2914E+01  0.0000E+00  0.0000E+00  0.0000E+00  0.0000E+00  0.0000E+00  0.0000E+00  0.0000E+00  0.0000E+00  0.0000E+00  0.0000E+00  0.0000E+00
RES          1    1  0.1002E+09  0.1475E+01  0.1229E+02  0.1864E+06  0.1091E+06  0.0000E+00  0.1499E+03  0.3298E+02  0.1002E+01  0.4064E+03  0.1120E+04  0.3404E-01  0.5416E+02  0.8763E+02  0.2662E-02  0.2109E+04  0.1841E+05  0.5594E+00  0.0000E+00  0.0000E+00  0.0000E+00  0.3899E+03  0.1747E+04  0.5306E-01  0.7411E+02  0.5226E+03  0.1588E-01  0.0000E+00  0.1668E+03  0.2954E+01  0.0000E+00  0.0000E+00  0.0000E+00  0.0000E+00  0.0000E+00  0.0000E+00  0.0000E+00  0.0000E+00  0.0000E+00  0.0000E+00  0.0000E+00
RES          1    2  0.4735E+08  0.7900E+01  0.2903E+02  0.2213E+06  0.1056E+06  0.0000E+00  0.8146E+03  0.7325E+02  0.1005E+01  0.7202E+03  0.2596E+04  0.3607E-01  0.8519E+02  0.2250E+03  0.3116E-02  0.7603E+04  0.3736E+05  0.5177E+00  0.0000E+00  0.0000E+00  0.0000E+00  0.9899E+03  0.3662E+04  0.5096E-01  0.1659E+03  0.1027E+04  0.1438E-01  0.0000E+00  0.3485E+03  0.3132E+01  0.0000E+00  0.0000E+00  0.0000E+00  0.0000E+00  0.0000E+00  0.0000E+00  0.0000E+00  0.0000E+00  0.0000E+00  0.0000E+00  0.0000E+00
RES          1    3  0.1465E+08  0.1329E+02  0.2558E+02  0.2921E+06  0.7894E+05  0.0000E+00  0.3474E+04  0.6923E+02  0.1009E+01  0.4144E+04  0.4005E+04  0.6251E-01  0.5657E+03  0.4734E+03  0.7469E-02  0.4127E+05  0.5232E+05  0.7539E+00  0.0000E+00  0.0000E+00  0.0000E+00  0.2079E+04  0.3618E+04  0.5396E-01  0.9705E+03  0.1165E+04  0.1753E-01  0.0000E+00  0.4168E+03  0.2274E+01  0.0000E+00  0.0000E+00  0.0000E+00  0.0000E+00  0.0000E+00  0.0000E+00  0.0000E+00  0.0000E+00  0.0000E+00  0.0000E+00  0.0000E+00
RES          1    4  0.1631E+08  0.1876E+02  0.1817E+02  0.1920E+06  0.5801E+05  0.0000E+00  0.3208E+04  0.4742E+02  0.1005E+01  0.2103E+04  0.2921E+04  0.6208E-01  0.2182E+03  0.3356E+03  0.7128E-02  0.4856E+05  0.4336E+05  0.9213E+00  0.0000E+00  0.0000E+00  0.0000E+00  0.1389E+04  0.1703E+04  0.3613E-01  0.9312E+03  0.9063E+03  0.1954E-01  0.0000E+00  0.3108E+03  0.2648E+01  0.0000E+00  0.0000E+00  0.0000E+00  0.0000E+00  0.0000E+00  0.0000E+00  0.0000E+00  0.0000E+00  0.0000E+00  0.0000E+00  0.0000E+00
RES          1    5  0.8690E+08  0.4798E+02  0.2187E+02  0.8014E+06  0.1325E+06  0.0000E+00  0.2741E+05  0.1243E+03  0.1474E+01  0.1759E+05  0.5652E+04  0.1063E+00  0.1489E+04  0.4928E+03  0.9575E-02  0.1086E+06  0.4758E+05  0.8220E+00  0.0000E+00  0.0000E+00  0.0000E+00  0.7000E+04  0.2407E+04  0.4418E-01  0.7658E+04  0.2669E+04  0.4561E-01  0.3375E+03  0.6473E+03  0.1820E+01  0.0000E+00  0.0000E+00  0.0000E+00  0.0000E+00  0.0000E+00  0.0000E+00  0.0000E+00  0.0000E+00  0.0000E+00  0.0000E+00  0.0000E+00
RES          1    6  0.1415E+09  0.3088E+02  0.9733E+01  0.1582E+06  0.3493E+06  0.0000E+00  0.4745E+04  0.2530E+02  0.1001E+01  0.1265E+04  0.2046E+04  0.9768E-01  0.7191E+02  0.1603E+03  0.7775E-02  0.1917E+06  0.3856E+05  0.1232E+01  0.0000E+00  0.0000E+00  0.0000E+00  0.3198E+04  0.1221E+04  0.4992E-01  0.1125E+04  0.9146E+03  0.4396E-01  0.4356E-01  0.2407E+03  0.2208E+01  0.0000E+00  0.0000E+00  0.0000E+00  0.0000E+00  0.0000E+00  0.0000E+00  0.0000E+00  0.0000E+00  0.0000E+00  0.0000E+00  0.0000E+00
RES          1    7  0.1301E+09  0.1626E+02  0.2077E+02  0.1165E+07  0.4606E+06  0.0000E+00  0.2149E+04  0.5577E+02  0.1002E+01  0.2245E+04  0.3931E+04  0.7093E-01  0.1946E+03  0.3030E+03  0.5481E-02  0.3866E+05  0.8447E+05  0.1506E+01  0.0000E+00  0.0000E+00  0.0000E+00  0.1297E+04  0.2422E+04  0.4350E-01  0.6036E+03  0.1732E+04  0.3096E-01  0.0000E+00  0.4725E+03  0.2390E+01  0.0000E+00  0.0000E+00  0.0000E+00  0.0000E+00  0.0000E+00  0.0000E+00  0.0000E+00  0.0000E+00  0.0000E+00  0.0000E+00  0.0000E+00
RES          1    8  0.2084E+09  0.5783E+02  0.2913E+02  0.1835E+07  0.4663E+06  0.0000E+00  0.1471E+05  0.7814E+02  0.1001E+01  0.1084E+05  0.4569E+04  0.6031E-01  0.1136E+04  0.3667E+03  0.4967E-02  0.6974E+05  0.8287E+05  0.1032E+01  0.0000E+00  0.0000E+00  0.0000E+00  0.5878E+04  0.2727E+04  0.3555E-01  0.3653E+04  0.1895E+04  0.2430E-01  0.1095E+02  0.5553E+03  0.2432E+01  0.0000E+00  0.0000E+00  0.0000E+00  0.0000E+00  0.0000E+00  0.0000E+00  0.0000E+00  0.0000E+00  0.0000E+00  0.0000E+00  0.0000E+00
RES          1    9  0.3216E+09  0.8332E+02  0.4027E+02  0.2105E+07  0.4793E+06  0.0000E+00  0.1771E+05  0.1044E+03  0.1000E+01  0.1017E+05  0.6658E+04  0.6409E-01  0.8930E+03  0.6148E+03  0.5922E-02  0.1443E+06  0.6968E+05  0.6660E+00  0.0000E+00  0.0000E+00  0.0000E+00  0.6416E+04  0.3765E+04  0.3620E-01  0.5053E+04  0.2549E+04  0.2453E-01  0.2016E+02  0.7686E+03  0.2542E+01  0.0000E+00  0.0000E+00  0.0000E+00  0.0000E+00  0.0000E+00  0.0000E+00  0.0000E+00  0.0000E+00  0.0000E+00  0.0000E+00  0.0000E+00
RES          1   10  0.2850E+09  0.2472E+02  0.3823E+02  0.7689E+04  0.4094E+06  0.0000E+00  0.1916E+04  0.1025E+03  0.1001E+01  0.2680E+03  0.5228E+04  0.4998E-01  0.6091E+00  0.4667E+03  0.4446E-02  0.1130E+06  0.8014E+05  0.8013E+00  0.0000E+00  0.0000E+00  0.0000E+00  0.3801E+04  0.3449E+04  0.3440E-01  0.4934E+02  0.2086E+04  0.1988E-01  0.0000E+00  0.6498E+03  0.2787E+01  0.0000E+00  0.0000E+00  0.0000E+00  0.0000E+00  0.0000E+00  0.0000E+00  0.0000E+00  0.0000E+00  0.0000E+00  0.0000E+00  0.0000E+00
RES          1   11  0.2737E+09  0.8963E+01  0.1327E+02  0.7369E+05  0.2841E+06  0.0000E+00  0.6137E+03  0.3440E+02  0.1000E+01  0.2531E+03  0.1486E+04  0.4321E-01  0.1064E+02  0.1276E+03  0.3712E-02  0.1915E+05  0.2974E+05  0.8653E+00  0.0000E+00  0.0000E+00  0.0000E+00  0.2242E+04  0.1368E+04  0.3975E-01  0.4584E+02  0.5724E+03  0.1665E-01  0.0000E+00  0.1871E+03  0.2906E+01  0.0000E+00  0.0000E+00  0.0000E+00  0.0000E+00  0.0000E+00  0.0000E+00  0.0000E+00  0.0000E+00  0.0000E+00  0.0000E+00  0.0000E+00
RES          1   12  0.2483E+09  0.6966E+01  0.1642E+02  0.1762E+06  0.2140E+06  0.0000E+00  0.4690E+03  0.4401E+02  0.1001E+01  0.2548E+03  0.1756E+04  0.3999E-01  0.6483E+01  0.1458E+03  0.3323E-02  0.7220E+04  0.3605E+05  0.8207E+00  0.0000E+00  0.0000E+00  0.0000E+00  0.2463E+04  0.1952E+04  0.4428E-01  0.3924E+02  0.6546E+03  0.1492E-01  0.0000E+00  0.2198E+03  0.3022E+01  0.0000E+00  0.0000E+00  0.0000E+00  0.0000E+00  0.0000E+00  0.0000E+00  0.0000E+00  0.0000E+00  0.0000E+00  0.0000E+00  0.0000E+00
RES          1 2004  0.2483E+09  0.2653E+02  0.2289E+02  0.7213E+07  0.3147E+07  0.0000E+00  0.7737E+05  0.7917E+03  0.1042E+01  0.5026E+05  0.4197E+05  0.6067E-01  0.4726E+04  0.3799E+04  0.5470E-02  0.7919E+06  0.6205E+06  0.8762E+00  0.0000E+00  0.0000E+00  0.0000E+00  0.3714E+05  0.3004E+05  0.4348E-01  0.2037E+05  0.1670E+05  0.2404E-01  0.3687E+03  0.4984E+04  0.3022E+01  0.0000E+00  0.0000E+00  0.0000E+00  0.0000E+00  0.0000E+00  0.0000E+00  0.0000E+00  0.0000E+00  0.0000E+00  0.0000E+00  0.0000E+00
RES          1    1  0.1938E+09  0.2795E+01  0.2310E+02  0.2216E+04  0.1744E+06  0.0000E+00  0.1689E+03  0.6196E+02  0.1002E+01  0.1048E+03  0.2332E+04  0.3771E-01  0.5831E+00  0.1865E+03  0.3017E-02  0.2591E+04  0.4806E+05  0.7771E+00  0.0000E+00  0.0000E+00  0.0000E+00  0.1218E+04  0.2988E+04  0.4829E-01  0.6585E+01  0.8396E+03  0.1358E-01  0.0000E+00  0.2881E+03  0.3112E+01  0.0000E+00  0.0000E+00  0.0000E+00  0.0000E+00  0.0000E+00  0.0000E+00  0.0000E+00  0.0000E+00  0.0000E+00  0.0000E+00  0.0000E+00
RES          1    2  0.1758E+09  0.1050E+02  0.1821E+02  0.8609E+06  0.1217E+06  0.0000E+00  0.1228E+04  0.4413E+02  0.1001E+01  0.1402E+04  0.1630E+04  0.3705E-01  0.1739E+03  0.1302E+03  0.2975E-02  0.2139E+05  0.3331E+05  0.7556E+00  0.0000E+00  0.0000E+00  0.0000E+00  0.1018E+04  0.2175E+04  0.4919E-01  0.4835E+03  0.5674E+03  0.1288E-01  0.0000E+00  0.1981E+03  0.3071E+01  0.0000E+00  0.0000E+00  0.0000E+00  0.0000E+00  0.0000E+00  0.0000E+00  0.0000E+00  0.0000E+00  0.0000E+00  0.0000E+00  0.0000E+00
RES          1    3  0.1406E+09  0.2318E+02  0.3655E+02  0.7279E+06  0.1657E+06  0.0000E+00  0.4746E+04  0.9815E+02  0.1002E+01  0.4749E+04  0.3769E+04  0.3917E-01  0.5587E+03  0.3506E+03  0.3651E-02  0.4007E+05  0.7022E+05  0.7171E+00  0.0000E+00  0.0000E+00  0.0000E+00  0.3035E+04  0.4373E+04  0.4488E-01  0.1568E+04  0.1295E+04  0.1349E-01  0.0000E+00  0.4604E+03  0.2728E+01  0.0000E+00  0.0000E+00  0.0000E+00  0.0000E+00  0.0000E+00  0.0000E+00  0.0000E+00  0.0000E+00  0.0000E+00  0.0000E+00  0.0000E+00
RES          1    4  0.1112E+09  0.1985E+02  0.3127E+02  0.4956E+06  0.2380E+06  0.0000E+00  0.2709E+04  0.8124E+02  0.1002E+01  0.2028E+04  0.4138E+04  0.5119E-01  0.2046E+03  0.4121E+03  0.5093E-02  0.7866E+05  0.6534E+05  0.8106E+00  0.0000E+00  0.0000E+00  0.0000E+00  0.1392E+04  0.3519E+04  0.4341E-01  0.7573E+03  0.1362E+04  0.1688E-01  0.0000E+00  0.4660E+03  0.2858E+01  0.0000E+00  0.0000E+00  0.0000E+00  0.0000E+00  0.0000E+00  0.0000E+00  0.0000E+00  0.0000E+00  0.0000E+00  0.0000E+00  0.0000E+00
RES          1    5  0.3430E+09  0.1214E+03  0.3594E+02  0.3190E+07  0.3288E+06  0.0000E+00  0.1034E+06  0.9625E+02  0.1000E+01  0.5475E+05  0.1113E+05  0.1052E+00  0.3949E+04  0.8571E+03  0.8285E-02  0.2002E+06  0.6608E+05  0.7118E+00  0.0000E+00  0.0000E+00  0.0000E+00  0.2374E+05  0.5533E+04  0.5443E-01  0.3041E+05  0.5741E+04  0.5333E-01  0.1168E+04  0.1301E+04  0.1703E+01  0.0000E+00  0.0000E+00  0.0000E+00  0.0000E+00  0.0000E+00  0.0000E+00  0.0000E+00  0.0000E+00  0.0000E+00  0.0000E+00  0.0000E+00
RES          1    6  0.3835E+09  0.7930E+02  0.6410E+02  0.1594E+07  0.4746E+06  0.0000E+00  0.1353E+05  0.1662E+03  0.1000E+01  0.1089E+05  0.2003E+05  0.1205E+00  0.9257E+03  0.1475E+04  0.8872E-02  0.3018E+06  0.1496E+06  0.9006E+00  0.0000E+00  0.0000E+00  0.0000E+00  0.6664E+04  0.9499E+04  0.5714E-01  0.3451E+04  0.1012E+05  0.6081E-01  0.1377E+01  0.2303E+04  0.1995E+01  0.0000E+00  0.0000E+00  0.0000E+00  0.0000E+00  0.0000E+00  0.0000E+00  0.0000E+00  0.0000E+00  0.0000E+00  0.0000E+00  0.0000E+00
RES          1    7  0.3091E+09  0.3826E+02  0.6594E+02  0.5367E+06  0.8811E+06  0.0000E+00  0.2968E+04  0.1768E+03  0.1001E+01  0.4018E+03  0.1489E+05  0.8436E-01  0.1474E+02  0.1092E+04  0.6191E-02  0.1724E+06  0.1971E+06  0.1116E+01  0.0000E+00  0.0000E+00  0.0000E+00  0.3052E+04  0.8023E+04  0.4545E-01  0.1990E+03  0.7080E+04  0.4012E-01  0.0000E+00  0.1793E+04  0.2232E+01  0.0000E+00  0.0000E+00  0.0000E+00  0.0000E+00  0.0000E+00  0.0000E+00  0.0000E+00  0.0000E+00  0.0000E+00  0.0000E+00  0.0000E+00
RES          1    8  0.3784E+09  0.1012E+03  0.7681E+02  0.4518E+07  0.6653E+06  0.0000E+00  0.2986E+05  0.2059E+03  0.1001E+01  0.2640E+05  0.1704E+05  0.8104E-01  0.2326E+04  0.1338E+04  0.6288E-02  0.1058E+06  0.1767E+06  0.8973E+00  0.0000E+00  0.0000E+00  0.0000E+00  0.1506E+05  0.9980E+04  0.4797E-01  0.1144E+05  0.7729E+04  0.3700E-01  0.1490E+04  0.2012E+04  0.2167E+01  0.0000E+00  0.0000E+00  0.0000E+00  0.0000E+00  0.0000E+00  0.0000E+00  0.0000E+00  0.0000E+00  0.0000E+00  0.0000E+00  0.0000E+00
RES          1    9  0.3922E+09  0.8904E+02  0.8407E+02  0.1719E+07  0.7590E+06  0.0000E+00  0.2176E+05  0.2181E+03  0.1001E+01  0.6988E+04  0.1511E+05  0.6847E-01  0.5414E+03  0.1209E+04  0.5472E-02  0.1820E+06  0.1508E+06  0.6972E+00  0.0000E+00  0.0000E+00  0.0000E+00  0.6643E+04  0.9380E+04  0.4272E-01  0.6410E+04  0.7824E+04  0.3549E-01  0.1432E+03  0.2035E+04  0.2343E+01  0.0000E+00  0.0000E+00  0.0000E+00  0.0000E+00  0.0000E+00  0.0000E+00  0.0000E+00  0.0000E+00  0.0000E+00  0.0000E+00  0.0000E+00
RES          1   10  0.3931E+09  0.4769E+02  0.4761E+02  0.1203E+07  0.5445E+06  0.0000E+00  0.1246E+05  0.1276E+03  0.1001E+01  0.5515E+04  0.7290E+04  0.5632E-01  0.4343E+03  0.5709E+03  0.4403E-02  0.1182E+06  0.9588E+05  0.7586E+00  0.0000E+00  0.0000E+00  0.0000E+00  0.4262E+04  0.4801E+04  0.3732E-01  0.3760E+04  0.3989E+04  0.3085E-01  0.4997E+02  0.1065E+04  0.2404E+01  0.0000E+00  0.0000E+00  0.0000E+00  0.0000E+00  0.0000E+00  0.0000E+00  0.0000E+00  0.0000E+00  0.0000E+00  0.0000E+00  0.0000E+00
RES          1   11  0.3525E+09  0.1108E+02  0.2673E+02  0.3319E+06  0.3645E+06  0.0000E+00  0.7735E+03  0.6935E+02  0.1001E+01  0.3725E+03  0.3492E+04  0.5030E-01  0.2304E+02  0.2672E+03  0.3848E-02  0.2271E+05  0.5469E+05  0.7886E+00  0.0000E+00  0.0000E+00  0.0000E+00  0.2794E+04  0.2630E+04  0.3806E-01  0.5470E+02  0.1878E+04  0.2702E-01  0.0000E+00  0.5185E+03  0.2500E+01  0.0000E+00  0.0000E+00  0.0000E+00  0.0000E+00  0.0000E+00  0.0000E+00  0.0000E+00  0.0000E+00  0.0000E+00  0.0000E+00  0.0000E+00
RES          1   12  0.2928E+09  0.5532E+01  0.2777E+02  0.8848E+05  0.2208E+06  0.0000E+00  0.3647E+03  0.7449E+02  0.1001E+01  0.2230E+03  0.3506E+04  0.4710E-01  0.5960E+01  0.2612E+03  0.3508E-02  0.7387E+04  0.5670E+05  0.7618E+00  0.0000E+00  0.0000E+00  0.0000E+00  0.2057E+04  0.3109E+04  0.4184E-01  0.2068E+02  0.1826E+04  0.2453E-01  0.0000E+00  0.5166E+03  0.2578E+01  0.0000E+00  0.0000E+00  0.0000E+00  0.0000E+00  0.0000E+00  0.0000E+00  0.0000E+00  0.0000E+00  0.0000E+00  0.0000E+00  0.0000E+00
RES          1 2005  0.2928E+09  0.4607E+02  0.4499E+02  0.1527E+08  0.4938E+07  0.0000E+00  0.1940E+06  0.1420E+04  0.1001E+01  0.1138E+06  0.1043E+06  0.6501E-01  0.9158E+04  0.8150E+04  0.5144E-02  0.1253E+07  0.1164E+07  0.8082E+00  0.0000E+00  0.0000E+00  0.0000E+00  0.7093E+05  0.6601E+05  0.4587E-01  0.5856E+05  0.5025E+05  0.3059E-01  0.2853E+04  0.1296E+05  0.2578E+01  0.0000E+00  0.0000E+00  0.0000E+00  0.0000E+00  0.0000E+00  0.0000E+00  0.0000E+00  0.0000E+00  0.0000E+00  0.0000E+00  0.0000E+00
RES          1    1  0.2352E+09  0.5649E+01  0.2713E+02  0.1368E+06  0.1720E+06  0.0000E+00  0.3598E+03  0.7278E+02  0.1001E+01  0.2036E+03  0.3227E+04  0.4444E-01  0.3551E+01  0.2331E+03  0.3212E-02  0.5821E+04  0.5284E+05  0.7277E+00  0.0000E+00  0.0000E+00  0.0000E+00  0.2279E+04  0.3350E+04  0.4605E-01  0.1493E+02  0.1622E+04  0.2235E-01  0.0000E+00  0.4697E+03  0.2673E+01  0.0000E+00  0.0000E+00  0.0000E+00  0.0000E+00  0.0000E+00  0.0000E+00  0.0000E+00  0.0000E+00  0.0000E+00  0.0000E+00  0.0000E+00
RES          1    2  0.1914E+09  0.1233E+02  0.3075E+02  0.9298E+06  0.2080E+06  0.0000E+00  0.1401E+04  0.7453E+02  0.1002E+01  0.1536E+04  0.3125E+04  0.4209E-01  0.1893E+03  0.2243E+03  0.3036E-02  0.1070E+05  0.5069E+05  0.6798E+00  0.0000E+00  0.0000E+00  0.0000E+00  0.2702E+04  0.3850E+04  0.5179E-01  0.3115E+03  0.1489E+04  0.1998E-01  0.0000E+00  0.4447E+03  0.2755E+01  0.0000E+00  0.0000E+00  0.0000E+00  0.0000E+00  0.0000E+00  0.0000E+00  0.0000E+00  0.0000E+00  0.0000E+00  0.0000E+00  0.0000E+00
RES          1    3  0.1884E+09  0.3738E+02  0.3868E+02  0.7162E+06  0.2232E+06  0.0000E+00  0.1523E+05  0.1037E+03  0.1001E+01  0.1303E+05  0.5416E+04  0.5164E-01  0.1626E+04  0.5038E+03  0.4779E-02  0.3259E+05  0.5914E+05  0.5746E+00  0.0000E+00  0.0000E+00  0.0000E+00  0.5251E+04  0.5216E+04  0.5025E-01  0.4365E+04  0.2270E+04  0.2144E-01  0.5307E+01  0.6897E+03  0.2268E+01  0.0000E+00  0.0000E+00  0.0000E+00  0.0000E+00  0.0000E+00  0.0000E+00  0.0000E+00  0.0000E+00  0.0000E+00  0.0000E+00  0.0000E+00
RES          1    4  0.1793E+09  0.5026E+02  0.5407E+02  0.1030E+07  0.2776E+06  0.0000E+00  0.1937E+05  0.1403E+03  0.1001E+01  0.1144E+05  0.1145E+05  0.8157E-01  0.1263E+04  0.1270E+04  0.9036E-02  0.9590E+05  0.7464E+05  0.5308E+00  0.0000E+00  0.0000E+00  0.0000E+00  0.7187E+04  0.7365E+04  0.5255E-01  0.4727E+04  0.4289E+04  0.3047E-01  0.2164E+02  0.1265E+04  0.2222E+01  0.0000E+00  0.0000E+00  0.0000E+00  0.0000E+00  0.0000E+00  0.0000E+00  0.0000E+00  0.0000E+00  0.0000E+00  0.0000E+00  0.0000E+00
RES          1    5  0.2354E+09  0.9935E+02  0.7929E+02  0.2605E+07  0.2704E+06  0.0000E+00  0.4568E+05  0.2129E+03  0.1001E+01  0.1914E+05  0.1496E+05  0.7049E-01  0.1898E+04  0.1557E+04  0.7362E-02  0.2725E+06  0.1783E+06  0.8248E+00  0.0000E+00  0.0000E+00  0.0000E+00  0.1024E+05  0.9128E+04  0.4347E-01  0.1053E+05  0.6696E+04  0.3072E-01  0.1542E+03  0.1888E+04  0.2109E+01  0.0000E+00  0.0000E+00  0.0000E+00  0.0000E+00  0.0000E+00  0.0000E+00  0.0000E+00  0.0000E+00  0.0000E+00  0.0000E+00  0.0000E+00
RES          1    6  0.2074E+09  0.1297E+03  0.1409E+03  0.1392E+07  0.4706E+06  0.0000E+00  0.4259E+05  0.3724E+03  0.1018E+01  0.1406E+05  0.2304E+05  0.6223E-01  0.1157E+04  0.2151E+04  0.5788E-02  0.3563E+06  0.3283E+06  0.9068E+00  0.0000E+00  0.0000E+00  0.0000E+00  0.8187E+04  0.1254E+05  0.3394E-01  0.9609E+04  0.1301E+05  0.3516E-01  0.1473E+03  0.3410E+04  0.2481E+01  0.0000E+00  0.0000E+00  0.0000E+00  0.0000E+00  0.0000E+00  0.0000E+00  0.0000E+00  0.0000E+00  0.0000E+00  0.0000E+00  0.0000E+00
RES          1    7  0.4096E+09  0.1955E+03  0.1215E+03  0.4679E+07  0.7087E+06  0.0000E+00  0.8008E+05  0.3333E+03  0.1010E+01  0.3974E+05  0.1952E+05  0.5583E-01  0.3396E+04  0.1667E+04  0.4775E-02  0.3219E+06  0.2691E+06  0.9018E+00  0.0000E+00  0.0000E+00  0.0000E+00  0.2370E+05  0.1240E+05  0.3566E-01  0.2376E+05  0.1199E+05  0.3370E-01  0.1260E+04  0.3044E+04  0.2113E+01  0.0000E+00  0.0000E+00  0.0000E+00  0.0000E+00  0.0000E+00  0.0000E+00  0.0000E+00  0.0000E+00  0.0000E+00  0.0000E+00  0.0000E+00
RES          1    8  0.2825E+09  0.7824E+02  0.1261E+03  0.1946E+07  0.8365E+06  0.0000E+00  0.7554E+04  0.3385E+03  0.1002E+01  0.2226E+04  0.1875E+05  0.5468E-01  0.1599E+03  0.1572E+04  0.4580E-02  0.2045E+06  0.2472E+06  0.7368E+00  0.0000E+00  0.0000E+00  0.0000E+00  0.3704E+04  0.1134E+05  0.3335E-01  0.1889E+04  0.1088E+05  0.3176E-01  0.2383E+01  0.2883E+04  0.2508E+01  0.0000E+00  0.0000E+00  0.0000E+00  0.0000E+00  0.0000E+00  0.0000E+00  0.0000E+00  0.0000E+00  0.0000E+00  0.0000E+00  0.0000E+00
RES          1    9  0.3010E+09  0.5745E+02  0.5043E+02  0.8252E+06  0.5326E+06  0.0000E+00  0.9185E+04  0.1308E+03  0.1000E+01  0.4488E+04  0.5510E+04  0.4163E-01  0.3698E+03  0.4543E+03  0.3427E-02  0.1235E+06  0.9952E+05  0.7621E+00  0.0000E+00  0.0000E+00  0.0000E+00  0.4691E+04  0.3970E+04  0.3024E-01  0.2523E+04  0.3137E+04  0.2365E-01  0.0000E+00  0.8932E+03  0.2694E+01  0.0000E+00  0.0000E+00  0.0000E+00  0.0000E+00  0.0000E+00  0.0000E+00  0.0000E+00  0.0000E+00  0.0000E+00  0.0000E+00  0.0000E+00
RES          1   10  0.2641E+09  0.1136E+02  0.2497E+02  0.0000E+00  0.4812E+06  0.0000E+00  0.3186E+03  0.6694E+02  0.1001E+01  0.1555E+03  0.2323E+04  0.3460E-01  0.1478E+00  0.1840E+03  0.2739E-02  0.2967E+05  0.5408E+05  0.8091E+00  0.0000E+00  0.0000E+00  0.0000E+00  0.2236E+04  0.2126E+04  0.3183E-01  0.4060E+02  0.1294E+04  0.1927E-01  0.0000E+00  0.3874E+03  0.2838E+01  0.0000E+00  0.0000E+00  0.0000E+00  0.0000E+00  0.0000E+00  0.0000E+00  0.0000E+00  0.0000E+00  0.0000E+00  0.0000E+00  0.0000E+00
RES          1   11  0.2355E+09  0.9835E+01  0.2107E+02  0.8182E+06  0.2383E+06  0.0000E+00  0.8246E+03  0.5465E+02  0.1001E+01  0.2260E+04  0.1788E+04  0.3273E-01  0.2948E+03  0.1398E+03  0.2559E-02  0.1447E+05  0.4258E+05  0.7786E+00  0.0000E+00  0.0000E+00  0.0000E+00  0.1931E+04  0.1954E+04  0.3590E-01  0.3815E+03  0.9484E+03  0.1732E-01  0.0000E+00  0.2924E+03  0.2849E+01  0.0000E+00  0.0000E+00  0.0000E+00  0.0000E+00  0.0000E+00  0.0000E+00  0.0000E+00  0.0000E+00  0.0000E+00  0.0000E+00  0.0000E+00
RES          1   12  0.2198E+09  0.1842E+02  0.2452E+02  0.7283E+06  0.1869E+06  0.0000E+00  0.1605E+04  0.6571E+02  0.1001E+01  0.2386E+04  0.2548E+04  0.3884E-01  0.3313E+03  0.2429E+03  0.3703E-02  0.3230E+05  0.4764E+05  0.7255E+00  0.0000E+00  0.0000E+00  0.0000E+00  0.1974E+04  0.2426E+04  0.3695E-01  0.4064E+03  0.1031E+04  0.1573E-01  0.0000E+00  0.3445E+03  0.2956E+01  0.0000E+00  0.0000E+00  0.0000E+00  0.0000E+00  0.0000E+00  0.0000E+00  0.0000E+00  0.0000E+00  0.0000E+00  0.0000E+00  0.0000E+00
RES          1 2006  0.2198E+09  0.5914E+02  0.6181E+02  0.1581E+08  0.4606E+07  0.0000E+00  0.2242E+06  0.1967E+04  0.1003E+01  0.1107E+06  0.1117E+06  0.5093E-01  0.1069E+05  0.1020E+05  0.4589E-02  0.1500E+07  0.1504E+07  0.7471E+00  0.0000E+00  0.0000E+00  0.0000E+00  0.7408E+05  0.7567E+05  0.4009E-01  0.5856E+05  0.5866E+05  0.2516E-01  0.1591E+04  0.1601E+05  0.2956E+01  0.0000E+00  0.0000E+00  0.0000E+00  0.0000E+00  0.0000E+00  0.0000E+00  0.0000E+00  0.0000E+00  0.0000E+00  0.0000E+00  0.0000E+00
RES          1    1  0.1780E+09  0.1170E+02  0.2732E+02  0.2651E+06  0.1722E+06  0.0000E+00  0.5246E+03  0.7328E+02  0.1001E+01  0.7777E+03  0.2728E+04  0.3724E-01  0.6963E+02  0.2659E+03  0.3627E-02  0.2619E+05  0.5259E+05  0.7188E+00  0.0000E+00  0.0000E+00  0.0000E+00  0.2287E+04  0.2890E+04  0.3960E-01  0.1483E+03  0.9874E+03  0.1345E-01  0.0000E+00  0.3492E+03  0.3116E+01  0.0000E+00  0.0000E+00  0.0000E+00  0.0000E+00  0.0000E+00  0.0000E+00  0.0000E+00  0.0000E+00  0.0000E+00  0.0000E+00  0.0000E+00
RES          1    2  0.1549E+09  0.1400E+02  0.2368E+02  0.5185E+06  0.1470E+06  0.0000E+00  0.1247E+04  0.5735E+02  0.1001E+01  0.1605E+04  0.2063E+04  0.3606E-01  0.1674E+03  0.1965E+03  0.3436E-02  0.3809E+05  0.4117E+05  0.7187E+00  0.0000E+00  0.0000E+00  0.0000E+00  0.1860E+04  0.2466E+04  0.4311E-01  0.4319E+03  0.6920E+03  0.1209E-01  0.0000E+00  0.2535E+03  0.3141E+01  0.0000E+00  0.0000E+00  0.0000E+00  0.0000E+00  0.0000E+00  0.0000E+00  0.0000E+00  0.0000E+00  0.0000E+00  0.0000E+00  0.0000E+00
RES          1    3  0.1186E+09  0.1758E+02  0.3126E+02  0.4385E+06  0.1690E+06  0.0000E+00  0.2204E+04  0.8387E+02  0.1002E+01  0.4436E+04  0.4092E+04  0.4820E-01  0.5562E+03  0.4370E+03  0.5127E-02  0.6702E+05  0.7132E+05  0.8505E+00  0.0000E+00  0.0000E+00  0.0000E+00  0.2125E+04  0.3549E+04  0.4233E-01  0.8225E+03  0.1094E+04  0.1297E-01  0.0000E+00  0.4195E+03  0.2996E+01  0.0000E+00  0.0000E+00  0.0000E+00  0.0000E+00  0.0000E+00  0.0000E+00  0.0000E+00  0.0000E+00  0.0000E+00  0.0000E+00  0.0000E+00
RES          1    4  0.1615E+09  0.5483E+02  0.3853E+02  0.9328E+06  0.2593E+06  0.0000E+00  0.2908E+05  0.9995E+02  0.1001E+01  0.1146E+05  0.6908E+04  0.6976E-01  0.1210E+04  0.7249E+03  0.7318E-02  0.1273E+06  0.8825E+05  0.8787E+00  0.0000E+00  0.0000E+00  0.0000E+00  0.6686E+04  0.4516E+04  0.4538E-01  0.6775E+04  0.2971E+04  0.2987E-01  0.4302E+02  0.8552E+03  0.2286E+01  0.0000E+00  0.0000E+00  0.0000E+00  0.0000E+00  0.0000E+00  0.0000E+00  0.0000E+00  0.0000E+00  0.0000E+00  0.0000E+00  0.0000E+00
RES          1    5  0.1554E+09  0.2908E+02  0.3142E+02  0.4336E+06  0.3125E+06  0.0000E+00  0.6494E+04  0.8427E+02  0.1001E+01  0.2256E+04  0.4540E+04  0.5286E-01  0.1825E+03  0.4628E+03  0.5353E-02  0.7728E+05  0.8168E+05  0.9691E+00  0.0000E+00  0.0000E+00  0.0000E+00  0.2714E+04  0.3338E+04  0.3959E-01  0.1601E+04  0.2246E+04  0.2629E-01  0.0000E+00  0.6483E+03  0.2441E+01  0.0000E+00  0.0000E+00  0.0000E+00  0.0000E+00  0.0000E+00  0.0000E+00  0.0000E+00  0.0000E+00  0.0000E+00  0.0000E+00  0.0000E+00
RES          1    6  0.2572E+09  0.1280E+03  0.8937E+02  0.2179E+07  0.4045E+06  0.0000E+00  0.4244E+05  0.2320E+03  0.1001E+01  0.1564E+05  0.1216E+05  0.5103E-01  0.1474E+04  0.1149E+04  0.4814E-02  0.2981E+06  0.1752E+06  0.7895E+00  0.0000E+00  0.0000E+00  0.0000E+00  0.8702E+04  0.7731E+04  0.3369E-01  0.1055E+05  0.7568E+04  0.3140E-01  0.1795E+03  0.2008E+04  0.2474E+01  0.0000E+00  0.0000E+00  0.0000E+00  0.0000E+00  0.0000E+00  0.0000E+00  0.0000E+00  0.0000E+00  0.0000E+00  0.0000E+00  0.0000E+00
RES          1    7  0.1982E+09  0.4156E+02  0.6335E+02  0.1589E+06  0.7280E+06  0.0000E+00  0.1500E+04  0.1700E+03  0.1002E+01  0.4314E+03  0.5743E+04  0.3228E-01  0.2083E+02  0.5237E+03  0.2929E-02  0.2727E+06  0.2200E+06  0.1356E+01  0.0000E+00  0.0000E+00  0.0000E+00  0.1839E+04  0.4151E+04  0.2412E-01  0.2236E+03  0.3587E+04  0.2009E-01  0.0000E+00  0.1052E+04  0.2959E+01  0.0000E+00  0.0000E+00  0.0000E+00  0.0000E+00  0.0000E+00  0.0000E+00  0.0000E+00  0.0000E+00  0.0000E+00  0.0000E+00  0.0000E+00
RES          1    8  0.4208E+09  0.1742E+03  0.9310E+02  0.5915E+07  0.6071E+06  0.0000E+00  0.6710E+05  0.2495E+03  0.1000E+01  0.5362E+05  0.1964E+05  0.6024E-01  0.4858E+04  0.1719E+04  0.5289E-02  0.2055E+06  0.2043E+06  0.1026E+01  0.0000E+00  0.0000E+00  0.0000E+00  0.2564E+05  0.1051E+05  0.3519E-01  0.2683E+05  0.1078E+05  0.3345E-01  0.3269E+04  0.2674E+04  0.2022E+01  0.0000E+00  0.0000E+00  0.0000E+00  0.0000E+00  0.0000E+00  0.0000E+00  0.0000E+00  0.0000E+00  0.0000E+00  0.0000E+00  0.0000E+00
RES          1    9  0.3847E+09  0.6886E+02  0.8283E+02  0.8028E+06  0.6782E+06  0.0000E+00  0.3466E+04  0.2149E+03  0.1001E+01  0.3135E+04  0.1693E+05  0.7600E-01  0.2475E+03  0.1523E+04  0.6817E-02  0.2249E+06  0.1675E+06  0.7997E+00  0.0000E+00  0.0000E+00  0.0000E+00  0.7043E+04  0.9374E+04  0.4334E-01  0.1169E+04  0.8013E+04  0.3592E-01  0.0000E+00  0.2111E+04  0.2345E+01  0.0000E+00  0.0000E+00  0.0000E+00  0.0000E+00  0.0000E+00  0.0000E+00  0.0000E+00  0.0000E+00  0.0000E+00  0.0000E+00  0.0000E+00
RES          1   10  0.3516E+09  0.1319E+02  0.2539E+02  0.8420E+05  0.5213E+06  0.0000E+00  0.3808E+03  0.6804E+02  0.1001E+01  0.2009E+03  0.4046E+04  0.5928E-01  0.3694E+01  0.3523E+03  0.5158E-02  0.4864E+05  0.6283E+05  0.9249E+00  0.0000E+00  0.0000E+00  0.0000E+00  0.2347E+04  0.2941E+04  0.4322E-01  0.5325E+02  0.1871E+04  0.2740E-01  0.0000E+00  0.5304E+03  0.2457E+01  0.0000E+00  0.0000E+00  0.0000E+00  0.0000E+00  0.0000E+00  0.0000E+00  0.0000E+00  0.0000E+00  0.0000E+00  0.0000E+00  0.0000E+00
RES          1   11  0.2974E+09  0.5791E+01  0.2657E+02  0.0000E+00  0.3054E+06  0.0000E+00  0.1045E+03  0.6894E+02  0.1001E+01  0.1823E+03  0.3792E+04  0.5501E-01  0.4447E+01  0.3218E+03  0.4666E-02  0.9318E+04  0.6225E+05  0.9032E+00  0.0000E+00  0.0000E+00  0.0000E+00  0.1824E+04  0.3114E+04  0.4528E-01  0.3396E+02  0.1711E+04  0.2481E-01  0.0000E+00  0.4971E+03  0.2531E+01  0.0000E+00  0.0000E+00  0.0000E+00  0.0000E+00  0.0000E+00  0.0000E+00  0.0000E+00  0.0000E+00  0.0000E+00  0.0000E+00  0.0000E+00
RES          1   12  0.2672E+09  0.4839E+01  0.1613E+02  0.2691E+06  0.2510E+06  0.0000E+00  0.1311E+03  0.4324E+02  0.1001E+01  0.2416E+03  0.2257E+04  0.5202E-01  0.1299E+02  0.1867E+03  0.4295E-02  0.7159E+04  0.3750E+05  0.8652E+00  0.0000E+00  0.0000E+00  0.0000E+00  0.1466E+04  0.2069E+04  0.4803E-01  0.5443E+02  0.9942E+03  0.2286E-01  0.0000E+00  0.2941E+03  0.2608E+01  0.0000E+00  0.0000E+00  0.0000E+00  0.0000E+00  0.0000E+00  0.0000E+00  0.0000E+00  0.0000E+00  0.0000E+00  0.0000E+00  0.0000E+00
RES          1 2007  0.2672E+09  0.4705E+02  0.4578E+02  0.1200E+08  0.4556E+07  0.0000E+00  0.1547E+06  0.1445E+04  0.1001E+01  0.9399E+05  0.8489E+05  0.5252E-01  0.8808E+04  0.7863E+04  0.4903E-02  0.1402E+07  0.1265E+07  0.9022E+00  0.0000E+00  0.0000E+00  0.0000E+00  0.6453E+05  0.5665E+05  0.4020E-01  0.4870E+05  0.4252E+05  0.2425E-01  0.3491E+04  0.1169E+05  0.2608E+01  0.0000E+00  0.0000E+00  0.0000E+00  0.0000E+00  0.0000E+00  0.0000E+00  0.0000E+00  0.0000E+00  0.0000E+00  0.0000E+00  0.0000E+00
RES          1    1  0.2246E+09  0.6672E+01  0.2284E+02  0.8591E+06  0.1887E+06  0.0000E+00  0.4136E+03  0.6124E+02  0.1001E+01  0.8998E+03  0.3008E+04  0.4921E-01  0.1016E+03  0.2418E+03  0.3958E-02  0.1107E+05  0.5055E+05  0.8269E+00  0.0000E+00  0.0000E+00  0.0000E+00  0.1870E+04  0.3065E+04  0.5008E-01  0.1610E+03  0.1277E+04  0.2089E-01  0.0000E+00  0.3870E+03  0.2682E+01  0.0000E+00  0.0000E+00  0.0000E+00  0.0000E+00  0.0000E+00  0.0000E+00  0.0000E+00  0.0000E+00  0.0000E+00  0.0000E+00  0.0000E+00
RES          1    2  0.1999E+09  0.1390E+02  0.2393E+02  0.5880E+06  0.1760E+06  0.0000E+00  0.6209E+03  0.6006E+02  0.1001E+01  0.1119E+04  0.2822E+04  0.4771E-01  0.1353E+03  0.2399E+03  0.4071E-02  0.2798E+05  0.4781E+05  0.8006E+00  0.0000E+00  0.0000E+00  0.0000E+00  0.1385E+04  0.2902E+04  0.4852E-01  0.2063E+03  0.1076E+04  0.1826E-01  0.0000E+00  0.3455E+03  0.2818E+01  0.0000E+00  0.0000E+00  0.0000E+00  0.0000E+00  0.0000E+00  0.0000E+00  0.0000E+00  0.0000E+00  0.0000E+00  0.0000E+00  0.0000E+00
RES          1    3  0.1526E+09  0.1349E+02  0.3139E+02  0.9227E+06  0.2211E+06  0.0000E+00  0.4400E+04  0.8423E+02  0.1002E+01  0.4439E+04  0.3748E+04  0.4466E-01  0.4822E+03  0.3150E+03  0.3752E-02  0.2451E+05  0.6427E+05  0.7653E+00  0.0000E+00  0.0000E+00  0.0000E+00  0.2296E+04  0.4169E+04  0.4965E-01  0.1588E+04  0.1376E+04  0.1642E-01  0.3912E+01  0.4531E+03  0.2518E+01  0.0000E+00  0.0000E+00  0.0000E+00  0.0000E+00  0.0000E+00  0.0000E+00  0.0000E+00  0.0000E+00  0.0000E+00  0.0000E+00  0.0000E+00
RES          1    4  0.1508E+09  0.3481E+02  0.3580E+02  0.9481E+06  0.2451E+06  0.0000E+00  0.1109E+05  0.9296E+02  0.1001E+01  0.3842E+05  0.1981E+05  0.2168E+00  0.5781E+04  0.2737E+04  0.3004E-01  0.8722E+05  0.6850E+05  0.7332E+00  0.0000E+00  0.0000E+00  0.0000E+00  0.4153E+04  0.4575E+04  0.4958E-01  0.1973E+04  0.2118E+04  0.2293E-01  0.5056E+04  0.1034E+04  0.2141E+01  0.0000E+00  0.0000E+00  0.0000E+00  0.0000E+00  0.0000E+00  0.0000E+00  0.0000E+00  0.0000E+00  0.0000E+00  0.0000E+00  0.0000E+00
RES          1    5  0.1860E+09  0.3543E+02  0.2252E+02  0.9696E+06  0.3169E+06  0.0000E+00  0.1002E+05  0.6033E+02  0.1000E+01  0.6313E+04  0.9246E+04  0.1517E+00  0.5489E+03  0.1210E+04  0.1976E-01  0.1576E+06  0.6174E+05  0.1040E+01  0.0000E+00  0.0000E+00  0.0000E+00  0.4250E+04  0.2760E+04  0.4561E-01  0.2896E+04  0.1247E+04  0.2081E-01  0.0000E+00  0.5558E+03  0.2239E+01  0.0000E+00  0.0000E+00  0.0000E+00  0.0000E+00  0.0000E+00  0.0000E+00  0.0000E+00  0.0000E+00  0.0000E+00  0.0000E+00  0.0000E+00
RES          1    6  0.2348E+09  0.8768E+02  0.6957E+02  0.2170E+07  0.3686E+06  0.0000E+00  0.1738E+05  0.1805E+03  0.1001E+01  0.1179E+05  0.1700E+05  0.9839E-01  0.1001E+04  0.1872E+04  0.1106E-01  0.2845E+06  0.2125E+06  0.1192E+01  0.0000E+00  0.0000E+00  0.0000E+00  0.6940E+04  0.6930E+04  0.3912E-01  0.6160E+04  0.4701E+04  0.2517E-01  0.8608E+02  0.1527E+04  0.2411E+01  0.0000E+00  0.0000E+00  0.0000E+00  0.0000E+00  0.0000E+00  0.0000E+00  0.0000E+00  0.0000E+00  0.0000E+00  0.0000E+00  0.0000E+00
RES          1    7  0.2604E+09  0.8094E+02  0.7190E+02  0.2062E+07  0.6778E+06  0.0000E+00  0.1429E+05  0.1928E+03  0.1001E+01  0.6700E+04  0.1067E+05  0.5582E-01  0.6166E+03  0.1084E+04  0.5678E-02  0.2824E+06  0.2574E+06  0.1335E+01  0.0000E+00  0.0000E+00  0.0000E+00  0.6080E+04  0.5596E+04  0.2921E-01  0.4373E+04  0.3865E+04  0.2017E-01  0.1563E+03  0.1250E+04  0.2534E+01  0.0000E+00  0.0000E+00  0.0000E+00  0.0000E+00  0.0000E+00  0.0000E+00  0.0000E+00  0.0000E+00  0.0000E+00  0.0000E+00  0.0000E+00
RES          1    8  0.3119E+09  0.6834E+02  0.4932E+02  0.1252E+07  0.6951E+06  0.0000E+00  0.8659E+04  0.1322E+03  0.1000E+01  0.3057E+04  0.5502E+04  0.3932E-01  0.2698E+03  0.5314E+03  0.3776E-02  0.1593E+06  0.1468E+06  0.1090E+01  0.0000E+00  0.0000E+00  0.0000E+00  0.3737E+04  0.3692E+04  0.2714E-01  0.3033E+04  0.2734E+04  0.2002E-01  0.0000E+00  0.8327E+03  0.2739E+01  0.0000E+00  0.0000E+00  0.0000E+00  0.0000E+00  0.0000E+00  0.0000E+00  0.0000E+00  0.0000E+00  0.0000E+00  0.0000E+00  0.0000E+00
RES          1    9  0.3741E+09  0.4677E+02  0.2287E+02  0.9331E+06  0.6553E+06  0.0000E+00  0.6605E+04  0.5927E+02  0.1000E+01  0.2024E+04  0.1817E+04  0.3050E-01  0.1673E+03  0.1672E+03  0.2803E-02  0.9844E+05  0.5526E+05  0.9319E+00  0.0000E+00  0.0000E+00  0.0000E+00  0.2036E+04  0.1422E+04  0.2390E-01  0.2240E+04  0.1156E+04  0.1942E-01  0.2361E+01  0.3460E+03  0.2818E+01  0.0000E+00  0.0000E+00  0.0000E+00  0.0000E+00  0.0000E+00  0.0000E+00  0.0000E+00  0.0000E+00  0.0000E+00  0.0000E+00  0.0000E+00
RES          1   10  0.4392E+09  0.3773E+02  0.1361E+02  0.1054E+07  0.5596E+06  0.0000E+00  0.6352E+04  0.3646E+02  0.1000E+01  0.2931E+04  0.1047E+04  0.2882E-01  0.2798E+03  0.9523E+02  0.2624E-02  0.7843E+05  0.3192E+05  0.8723E+00  0.0000E+00  0.0000E+00  0.0000E+00  0.3856E+04  0.8874E+03  0.2433E-01  0.2459E+04  0.7120E+03  0.1970E-01  0.8606E+01  0.2114E+03  0.2796E+01  0.0000E+00  0.0000E+00  0.0000E+00  0.0000E+00  0.0000E+00  0.0000E+00  0.0000E+00  0.0000E+00  0.0000E+00  0.0000E+00  0.0000E+00
RES          1   11  0.4137E+09  0.1425E+02  0.2420E+02  0.6642E+06  0.3648E+06  0.0000E+00  0.4956E+03  0.6275E+02  0.1000E+01  0.4983E+03  0.1679E+04  0.2682E-01  0.2927E+02  0.1491E+03  0.2384E-02  0.2604E+05  0.5336E+05  0.8515E+00  0.0000E+00  0.0000E+00  0.0000E+00  0.2110E+04  0.1643E+04  0.2615E-01  0.1426E+03  0.1124E+04  0.1798E-01  0.0000E+00  0.3406E+03  0.2902E+01  0.0000E+00  0.0000E+00  0.0000E+00  0.0000E+00  0.0000E+00  0.0000E+00  0.0000E+00  0.0000E+00  0.0000E+00  0.0000E+00  0.0000E+00
RES          1   12  0.3657E+09  0.6985E+01  0.2503E+02  0.6232E+06  0.2779E+06  0.0000E+00  0.1149E+03  0.6710E+02  0.1001E+01  0.2263E+03  0.1699E+04  0.2534E-01  0.1827E+01  0.1454E+03  0.2169E-02  0.8108E+04  0.5475E+05  0.8166E+00  0.0000E+00  0.0000E+00  0.0000E+00  0.2560E+04  0.1999E+04  0.2980E-01  0.1527E+02  0.1095E+04  0.1633E-01  0.0000E+00  0.3393E+03  0.2993E+01  0.0000E+00  0.0000E+00  0.0000E+00  0.0000E+00  0.0000E+00  0.0000E+00  0.0000E+00  0.0000E+00  0.0000E+00  0.0000E+00  0.0000E+00
RES          1 2008  0.3657E+09  0.3728E+02  0.3443E+02  0.1304E+08  0.4747E+07  0.0000E+00  0.8043E+05  0.1090E+04  0.1001E+01  0.7842E+05  0.7804E+05  0.6776E-01  0.9415E+04  0.8788E+04  0.7650E-02  0.1246E+07  0.1105E+07  0.9387E+00  0.0000E+00  0.0000E+00  0.0000E+00  0.4127E+05  0.3964E+05  0.3689E-01  0.2525E+05  0.2248E+05  0.1984E-01  0.5313E+04  0.7622E+04  0.2993E+01  0.0000E+00  0.0000E+00  0.0000E+00  0.0000E+00  0.0000E+00  0.0000E+00  0.0000E+00  0.0000E+00  0.0000E+00  0.0000E+00  0.0000E+00
RES          1    1  0.3015E+09  0.3117E+01  0.2703E+02  0.7583E+05  0.1991E+06  0.0000E+00  0.5262E+02  0.7250E+02  0.1001E+01  0.2095E+03  0.1767E+04  0.2440E-01  0.1344E+02  0.1463E+03  0.2018E-02  0.3883E+04  0.5682E+05  0.7844E+00  0.0000E+00  0.0000E+00  0.0000E+00  0.1236E+04  0.2410E+04  0.3332E-01  0.1327E+02  0.1099E+04  0.1517E-01  0.0000E+00  0.3467E+03  0.3061E+01  0.0000E+00  0.0000E+00  0.0000E+00  0.0000E+00  0.0000E+00  0.0000E+00  0.0000E+00  0.0000E+00  0.0000E+00  0.0000E+00  0.0000E+00
RES          1    2  0.2483E+09  0.2275E+01  0.2421E+02  0.6870E+05  0.2091E+06  0.0000E+00  0.3090E+02  0.5866E+02  0.1001E+01  0.6184E+02  0.1397E+04  0.2384E-01  0.1532E+01  0.1131E+03  0.1928E-02  0.2291E+04  0.4458E+05  0.7604E+00  0.0000E+00  0.0000E+00  0.0000E+00  0.7957E+03  0.2043E+04  0.3491E-01  0.1077E+02  0.8367E+03  0.1426E-01  0.0000E+00  0.2682E+03  0.3126E+01  0.0000E+00  0.0000E+00  0.0000E+00  0.0000E+00  0.0000E+00  0.0000E+00  0.0000E+00  0.0000E+00  0.0000E+00  0.0000E+00  0.0000E+00
RES          1    3  0.2274E+09  0.1376E+02  0.2174E+02  0.7658E+06  0.2476E+06  0.0000E+00  0.2692E+04  0.5827E+02  0.1001E+01  0.2630E+04  0.1595E+04  0.2743E-01  0.2949E+03  0.1378E+03  0.2370E-02  0.1570E+05  0.4140E+05  0.7105E+00  0.0000E+00  0.0000E+00  0.0000E+00  0.1415E+04  0.2082E+04  0.3575E-01  0.8649E+03  0.8261E+03  0.1419E-01  0.0000E+00  0.2708E+03  0.3028E+01  0.0000E+00  0.0000E+00  0.0000E+00  0.0000E+00  0.0000E+00  0.0000E+00  0.0000E+00  0.0000E+00  0.0000E+00  0.0000E+00  0.0000E+00
RES          1    4  0.2222E+09  0.1953E+02  0.2173E+02  0.7461E+06  0.2996E+06  0.0000E+00  0.3295E+04  0.5636E+02  0.1000E+01  0.1763E+04  0.1647E+04  0.2927E-01  0.1726E+03  0.1464E+03  0.2602E-02  0.2626E+05  0.3737E+05  0.6631E+00  0.0000E+00  0.0000E+00  0.0000E+00  0.1622E+04  0.1957E+04  0.3473E-01  0.1104E+04  0.8227E+03  0.1463E-01  0.0000E+00  0.2697E+03  0.2970E+01  0.0000E+00  0.0000E+00  0.0000E+00  0.0000E+00  0.0000E+00  0.0000E+00  0.0000E+00  0.0000E+00  0.0000E+00  0.0000E+00  0.0000E+00
RES          1    5  0.2300E+09  0.2613E+02  0.2342E+02  0.1001E+07  0.4271E+06  0.0000E+00  0.6305E+04  0.6276E+02  0.1000E+01  0.2604E+04  0.1874E+04  0.2982E-01  0.2472E+03  0.1656E+03  0.2636E-02  0.3142E+05  0.3792E+05  0.6058E+00  0.0000E+00  0.0000E+00  0.0000E+00  0.2121E+04  0.2087E+04  0.3328E-01  0.2071E+04  0.1042E+04  0.1652E-01  0.4361E+01  0.3268E+03  0.2798E+01  0.0000E+00  0.0000E+00  0.0000E+00  0.0000E+00  0.0000E+00  0.0000E+00  0.0000E+00  0.0000E+00  0.0000E+00  0.0000E+00  0.0000E+00
RES          1    6  0.2789E+09  0.4812E+02  0.2957E+02  0.1148E+07  0.3603E+06  0.0000E+00  0.6637E+04  0.7665E+02  0.1000E+01  0.6430E+04  0.2730E+04  0.3524E-01  0.5590E+03  0.2409E+03  0.3112E-02  0.6888E+05  0.4174E+05  0.5453E+00  0.0000E+00  0.0000E+00  0.0000E+00  0.4455E+04  0.2519E+04  0.3286E-01  0.3225E+04  0.1527E+04  0.1980E-01  0.0000E+00  0.4585E+03  0.2688E+01  0.0000E+00  0.0000E+00  0.0000E+00  0.0000E+00  0.0000E+00  0.0000E+00  0.0000E+00  0.0000E+00  0.0000E+00  0.0000E+00  0.0000E+00
RES          1    7  0.2981E+09  0.6867E+02  0.6161E+02  0.1064E+07  0.7542E+06  0.0000E+00  0.1025E+05  0.1652E+03  0.1001E+01  0.4735E+04  0.5946E+04  0.3574E-01  0.3323E+03  0.4887E+03  0.2939E-02  0.1791E+06  0.1036E+06  0.6344E+00  0.0000E+00  0.0000E+00  0.0000E+00  0.4810E+04  0.4842E+04  0.2938E-01  0.3852E+04  0.3595E+04  0.2157E-01  0.4232E+02  0.1042E+04  0.2788E+01  0.0000E+00  0.0000E+00  0.0000E+00  0.0000E+00  0.0000E+00  0.0000E+00  0.0000E+00  0.0000E+00  0.0000E+00  0.0000E+00  0.0000E+00
RES          1    8  0.3739E+09  0.7650E+02  0.4852E+02  0.1642E+07  0.7629E+06  0.0000E+00  0.1329E+05  0.1300E+03  0.1001E+01  0.7077E+04  0.4280E+04  0.3322E-01  0.6329E+03  0.3510E+03  0.2734E-02  0.1302E+06  0.9394E+05  0.7154E+00  0.0000E+00  0.0000E+00  0.0000E+00  0.5412E+04  0.3838E+04  0.2946E-01  0.5592E+04  0.2786E+04  0.2174E-01  0.4535E+02  0.8042E+03  0.2663E+01  0.0000E+00  0.0000E+00  0.0000E+00  0.0000E+00  0.0000E+00  0.0000E+00  0.0000E+00  0.0000E+00  0.0000E+00  0.0000E+00  0.0000E+00
RES          1    9  0.3896E+09  0.2161E+02  0.1543E+02  0.2967E+06  0.6778E+06  0.0000E+00  0.1014E+04  0.4001E+02  0.1000E+01  0.1054E+04  0.1194E+04  0.2970E-01  0.9918E+02  0.9882E+02  0.2459E-02  0.4484E+05  0.2773E+05  0.6931E+00  0.0000E+00  0.0000E+00  0.0000E+00  0.2030E+04  0.1065E+04  0.2671E-01  0.3740E+03  0.8237E+03  0.2036E-01  0.0000E+00  0.2393E+03  0.2791E+01  0.0000E+00  0.0000E+00  0.0000E+00  0.0000E+00  0.0000E+00  0.0000E+00  0.0000E+00  0.0000E+00  0.0000E+00  0.0000E+00  0.0000E+00
RES          1   10  0.3681E+09  0.7738E+01  0.1555E+02  0.1071E+05  0.5187E+06  0.0000E+00  0.1041E+03  0.4167E+02  0.1000E+01  0.1226E+03  0.1164E+04  0.2807E-01  0.6086E+00  0.9492E+02  0.2293E-02  0.1155E+05  0.2813E+05  0.6768E+00  0.0000E+00  0.0000E+00  0.0000E+00  0.2052E+04  0.1222E+04  0.2911E-01  0.3096E+02  0.7564E+03  0.1827E-01  0.0000E+00  0.2274E+03  0.2881E+01  0.0000E+00  0.0000E+00  0.0000E+00  0.0000E+00  0.0000E+00  0.0000E+00  0.0000E+00  0.0000E+00  0.0000E+00  0.0000E+00  0.0000E+00
RES          1   11  0.3804E+09  0.1111E+02  0.6367E+01  0.3097E+06  0.2867E+06  0.0000E+00  0.2189E+03  0.1651E+02  0.1000E+01  0.5305E+03  0.4438E+03  0.2676E-01  0.3440E+02  0.3539E+02  0.2126E-02  0.1450E+05  0.1082E+05  0.6510E+00  0.0000E+00  0.0000E+00  0.0000E+00  0.2292E+04  0.5333E+03  0.3262E-01  0.1240E+03  0.2810E+03  0.1672E-01  0.0000E+00  0.8581E+02  0.2981E+01  0.0000E+00  0.0000E+00  0.0000E+00  0.0000E+00  0.0000E+00  0.0000E+00  0.0000E+00  0.0000E+00  0.0000E+00  0.0000E+00  0.0000E+00
RES          1   12  0.3522E+09  0.6654E+01  0.1726E+02  0.4003E+06  0.2175E+06  0.0000E+00  0.1587E+03  0.4625E+02  0.1000E+01  0.5560E+03  0.1203E+04  0.2603E-01  0.5651E+02  0.9430E+02  0.2040E-02  0.1165E+05  0.2917E+05  0.6304E+00  0.0000E+00  0.0000E+00  0.0000E+00  0.1217E+04  0.1595E+04  0.3454E-01  0.8129E+02  0.7113E+03  0.1534E-01  0.0000E+00  0.2236E+03  0.3055E+01  0.0000E+00  0.0000E+00  0.0000E+00  0.0000E+00  0.0000E+00  0.0000E+00  0.0000E+00  0.0000E+00  0.0000E+00  0.0000E+00  0.0000E+00
RES          1 2009  0.3522E+09  0.2563E+02  0.2614E+02  0.7529E+07  0.4961E+07  0.0000E+00  0.4405E+05  0.8248E+03  0.1001E+01  0.2777E+05  0.2524E+05  0.2916E-01  0.2444E+04  0.2113E+04  0.2441E-02  0.5403E+06  0.5532E+06  0.6722E+00  0.0000E+00  0.0000E+00  0.0000E+00  0.2946E+05  0.2619E+05  0.3221E-01  0.1734E+05  0.1511E+05  0.1740E-01  0.9203E+02  0.4562E+04  0.3055E+01  0.0000E+00  0.0000E+00  0.0000E+00  0.0000E+00  0.0000E+00  0.0000E+00  0.0000E+00  0.0000E+00  0.0000E+00  0.0000E+00  0.0000E+00
RES          1    1  0.3323E+09  0.1241E+02  0.1994E+02  0.4100E+06  0.1980E+06  0.0000E+00  0.4289E+03  0.5343E+02  0.1000E+01  0.1165E+04  0.1373E+04  0.2579E-01  0.1181E+03  0.1086E+03  0.2045E-02  0.2771E+05  0.3359E+05  0.6293E+00  0.0000E+00  0.0000E+00  0.0000E+00  0.1577E+04  0.1845E+04  0.3464E-01  0.2285E+03  0.7536E+03  0.1400E-01  0.0000E+00  0.2437E+03  0.3141E+01  0.0000E+00  0.0000E+00  0.0000E+00  0.0000E+00  0.0000E+00  0.0000E+00  0.0000E+00  0.0000E+00  0.0000E+00  0.0000E+00  0.0000E+00
RES          1    2  0.3741E+09  0.3320E+02  0.1629E+02  0.9891E+06  0.1516E+06  0.0000E+00  0.5568E+04  0.3941E+02  0.1000E+01  0.5810E+04  0.1242E+04  0.3088E-01  0.7943E+03  0.1177E+03  0.2880E-02  0.4174E+05  0.2396E+05  0.6101E+00  0.0000E+00  0.0000E+00  0.0000E+00  0.2871E+04  0.1390E+04  0.3535E-01  0.2226E+04  0.5943E+03  0.1499E-01  0.2925E+00  0.1956E+03  0.2903E+01  0.0000E+00  0.0000E+00  0.0000E+00  0.0000E+00  0.0000E+00  0.0000E+00  0.0000E+00  0.0000E+00  0.0000E+00  0.0000E+00  0.0000E+00
RES          1    3  0.4104E+09  0.4690E+02  0.3361E+02  0.1118E+07  0.3677E+06  0.0000E+00  0.1695E+05  0.9005E+02  0.1000E+01  0.1125E+05  0.4289E+04  0.4742E-01  0.1243E+04  0.4498E+03  0.4971E-02  0.8694E+05  0.5348E+05  0.5935E+00  0.0000E+00  0.0000E+00  0.0000E+00  0.5724E+04  0.3345E+04  0.3720E-01  0.5057E+04  0.1927E+04  0.2133E-01  0.9506E+01  0.5960E+03  0.2604E+01  0.0000E+00  0.0000E+00  0.0000E+00  0.0000E+00  0.0000E+00  0.0000E+00  0.0000E+00  0.0000E+00  0.0000E+00  0.0000E+00  0.0000E+00
RES          1    4  0.4563E+09  0.6964E+02  0.5250E+02  0.1840E+07  0.4225E+06  0.0000E+00  0.1290E+05  0.1361E+03  0.1000E+01  0.8262E+04  0.6597E+04  0.4836E-01  0.9171E+03  0.6963E+03  0.5101E-02  0.2072E+06  0.9341E+05  0.6771E+00  0.0000E+00  0.0000E+00  0.0000E+00  0.5847E+04  0.4934E+04  0.3631E-01  0.3836E+04  0.2872E+04  0.2107E-01  0.8536E+01  0.8977E+03  0.2639E+01  0.0000E+00  0.0000E+00  0.0000E+00  0.0000E+00  0.0000E+00  0.0000E+00  0.0000E+00  0.0000E+00  0.0000E+00  0.0000E+00  0.0000E+00
RES          1    5  0.4441E+09  0.5290E+02  0.5787E+02  0.1788E+07  0.6053E+06  0.0000E+00  0.8941E+04  0.1551E+03  0.1000E+01  0.3429E+04  0.6470E+04  0.4187E-01  0.3126E+03  0.6667E+03  0.4319E-02  0.2929E+06  0.1531E+06  0.9843E+00  0.0000E+00  0.0000E+00  0.0000E+00  0.3632E+04  0.5081E+04  0.3283E-01  0.2573E+04  0.2987E+04  0.1921E-01  0.6099E+01  0.9429E+03  0.2715E+01  0.0000E+00  0.0000E+00  0.0000E+00  0.0000E+00  0.0000E+00  0.0000E+00  0.0000E+00  0.0000E+00  0.0000E+00  0.0000E+00  0.0000E+00
RES          1    6  0.4949E+09  0.1182E+03  0.1002E+03  0.4756E+07  0.6387E+06  0.0000E+00  0.3357E+05  0.2600E+03  0.1000E+01  0.2053E+05  0.1257E+05  0.4507E-01  0.1701E+04  0.1147E+04  0.4226E-02  0.2499E+06  0.2621E+06  0.1044E+01  0.0000E+00  0.0000E+00  0.0000E+00  0.1197E+05  0.8788E+04  0.3277E-01  0.1300E+05  0.7079E+04  0.2461E-01  0.1901E+03  0.1973E+04  0.2396E+01  0.0000E+00  0.0000E+00  0.0000E+00  0.0000E+00  0.0000E+00  0.0000E+00  0.0000E+00  0.0000E+00  0.0000E+00  0.0000E+00  0.0000E+00
RES          1    7  0.4825E+09  0.8202E+02  0.8665E+02  0.1059E+07  0.1043E+07  0.0000E+00  0.1417E+05  0.2324E+03  0.1001E+01  0.6575E+04  0.1038E+05  0.4391E-01  0.4423E+03  0.9123E+03  0.3869E-02  0.2019E+06  0.2278E+06  0.9994E+00  0.0000E+00  0.0000E+00  0.0000E+00  0.6264E+04  0.7495E+04  0.3244E-01  0.5710E+04  0.6029E+04  0.2520E-01  0.4601E+02  0.1691E+04  0.2445E+01  0.0000E+00  0.0000E+00  0.0000E+00  0.0000E+00  0.0000E+00  0.0000E+00  0.0000E+00  0.0000E+00  0.0000E+00  0.0000E+00  0.0000E+00
RES          1    8  0.5015E+09  0.6571E+02  0.5871E+02  0.1254E+07  0.1025E+07  0.0000E+00  0.7849E+04  0.1574E+03  0.1000E+01  0.2991E+04  0.6159E+04  0.3722E-01  0.2269E+03  0.5026E+03  0.3023E-02  0.1299E+06  0.1385E+06  0.8731E+00  0.0000E+00  0.0000E+00  0.0000E+00  0.4156E+04  0.4693E+04  0.2937E-01  0.2974E+04  0.4087E+04  0.2495E-01  0.1631E+01  0.1125E+04  0.2600E+01  0.0000E+00  0.0000E+00  0.0000E+00  0.0000E+00  0.0000E+00  0.0000E+00  0.0000E+00  0.0000E+00  0.0000E+00  0.0000E+00  0.0000E+00
RES          1    9  0.6090E+09  0.1156E+03  0.7543E+02  0.3934E+07  0.6767E+06  0.0000E+00  0.2617E+05  0.1956E+03  0.1000E+01  0.1487E+05  0.7364E+04  0.3637E-01  0.1287E+04  0.6001E+03  0.2950E-02  0.1823E+06  0.1467E+06  0.7685E+00  0.0000E+00  0.0000E+00  0.0000E+00  0.1028E+05  0.5728E+04  0.2882E-01  0.1092E+05  0.5132E+04  0.2530E-01  0.7141E+02  0.1403E+04  0.2439E+01  0.0000E+00  0.0000E+00  0.0000E+00  0.0000E+00  0.0000E+00  0.0000E+00  0.0000E+00  0.0000E+00  0.0000E+00  0.0000E+00  0.0000E+00
RES          1   10  0.6387E+09  0.7160E+02  0.6087E+02  0.1568E+07  0.5509E+06  0.0000E+00  0.1308E+05  0.1631E+03  0.1000E+01  0.1477E+05  0.6668E+04  0.4046E-01  0.1235E+04  0.5458E+03  0.3311E-02  0.1833E+06  0.1255E+06  0.7701E+00  0.0000E+00  0.0000E+00  0.0000E+00  0.1058E+05  0.5379E+04  0.3300E-01  0.5725E+04  0.4341E+04  0.2648E-01  0.3640E+02  0.1190E+04  0.2416E+01  0.0000E+00  0.0000E+00  0.0000E+00  0.0000E+00  0.0000E+00  0.0000E+00  0.0000E+00  0.0000E+00  0.0000E+00  0.0000E+00  0.0000E+00
RES          1   11  0.6168E+09  0.1893E+02  0.2727E+02  0.1495E+06  0.4255E+06  0.0000E+00  0.4310E+03  0.7069E+02  0.1000E+01  0.3097E+03  0.3380E+04  0.4760E-01  0.1079E+02  0.2757E+03  0.3878E-02  0.6678E+05  0.5610E+05  0.7955E+00  0.0000E+00  0.0000E+00  0.0000E+00  0.2353E+04  0.2594E+04  0.3670E-01  0.8670E+02  0.1884E+04  0.2650E-01  0.0000E+00  0.5237E+03  0.2507E+01  0.0000E+00  0.0000E+00  0.0000E+00  0.0000E+00  0.0000E+00  0.0000E+00  0.0000E+00  0.0000E+00  0.0000E+00  0.0000E+00  0.0000E+00
RES          1   12  0.5890E+09  0.1137E+02  0.2217E+02  0.4759E+06  0.3341E+06  0.0000E+00  0.2207E+03  0.5747E+02  0.1034E+01  0.3974E+03  0.2571E+04  0.4622E-01  0.2233E+02  0.2053E+03  0.3690E-02  0.2276E+05  0.4571E+05  0.8221E+00  0.0000E+00  0.0000E+00  0.0000E+00  0.2289E+04  0.2160E+04  0.3885E-01  0.7612E+02  0.1401E+04  0.2519E-01  0.0000E+00  0.3979E+03  0.2577E+01  0.0000E+00  0.0000E+00  0.0000E+00  0.0000E+00  0.0000E+00  0.0000E+00  0.0000E+00  0.0000E+00  0.0000E+00  0.0000E+00  0.0000E+00
RES          1 2010  0.5890E+09  0.5814E+02  0.5104E+02  0.1934E+08  0.6439E+07  0.0000E+00  0.1403E+06  0.1611E+04  0.1000E+01  0.9036E+05  0.6907E+05  0.4085E-01  0.8311E+04  0.6228E+04  0.3681E-02  0.1693E+07  0.1360E+07  0.7963E+00  0.0000E+00  0.0000E+00  0.0000E+00  0.6755E+05  0.5343E+05  0.3391E-01  0.5241E+05  0.3909E+05  0.2237E-01  0.3700E+03  0.1118E+05  0.2577E+01  0.0000E+00  0.0000E+00  0.0000E+00  0.0000E+00  0.0000E+00  0.0000E+00  0.0000E+00  0.0000E+00  0.0000E+00  0.0000E+00  0.0000E+00
