1
    SWAT Jun 01 2011    VER 2009/Rev. 481                                                                0/ 0/   0      0: 0: 0

    General Input/Output section (file.cio):                                        
    2013/12/18 0:00:00 ARCGIS-SWAT interface AV                                     
                                                                                    
         Number of years in run:   10
         Area of watershed:     5041.754 km2
1
    SWAT Jun 01 2011    VER 2009/Rev. 481                                           

    General Input/Output section (file.cio):                                        
    2013/12/18 0:00:00 ARCGIS-SWAT interface AV                                     
                                                                                    
Annual Summary for Watershed in year    1 of simulation

 UNIT                              PERCO   TILE                       WATER    SED    NO3    NO3    NO3    NO3        N       P       P
 TIME   PREC   SURQ   LATQ    GWQ   LATE      Q    SW     ET     PET  YIELD  YIELD   SURQ   LATQ   PERC   CROP  ORGANIC SOLUBLE ORGANIC
        (mm)   (mm)   (mm)   (mm)   (mm)   (mm)   (mm)   (mm)   (mm)   (mm) (t/ha)  -----------------(kg nutrient/ha)------------------
    1  85.50   9.51  13.85   0.00  12.09   0.00 222.48  28.08  29.20  23.18   3.29   0.03   0.74   5.95   0.00     3.09    0.00    0.38
    2  44.18   2.16  10.87   0.00   5.47   0.00 222.72  28.09  28.90  12.90   0.41   0.01   0.51   2.20   0.00     0.20    0.00    0.02
    3 101.13  10.46  19.27   0.01  19.80   0.00 221.99  48.75  49.21  29.59   3.79   0.04   0.63   7.07   5.63     5.75    0.00    0.70
    4 206.69  30.77  52.15   1.90  63.36   0.00 224.71  48.46  47.22  84.10   0.36   0.39   1.26  16.50  16.03     0.51    0.01    0.06
    5 204.31  37.57  48.80  12.32  49.41   0.00 216.73  80.87  77.67  98.31   0.38   0.25   0.51   5.34  13.60     0.41    0.01    0.05
    6 276.65  50.07  65.62  23.42  71.02   0.00 216.19  88.18  84.78 138.70   0.12   0.14   0.46   5.29   2.76     0.14    0.01    0.02
    7 259.57  49.61  54.97  23.15  45.14   0.00 221.26 104.49 109.19 127.48   0.12   0.12   0.27   1.81   4.28     0.36    0.01    0.04
    8 233.32  27.76  43.33   9.66  39.39   0.00 230.29 100.97 120.57  80.57   0.06   0.07   0.19   1.20   0.27     0.12    0.00    0.02
    9 218.54  79.72  65.58  19.97  52.56   0.00 204.50  65.63  81.74 165.11   0.22   0.27   0.34   1.78   0.00     0.48    0.01    0.07
   10   9.75   0.70   6.76   9.17   0.02   0.00 169.93  43.88  68.61  16.63   0.00   0.02   0.04   0.00   0.00     0.00    0.00    0.00
   11   3.55   0.04   1.77   1.04   0.00   0.00 153.36  19.90  41.25   2.85   0.00   0.00   0.01   0.00   0.00     0.00    0.00    0.00
   12  30.52   0.34   2.95   0.01   0.00   0.00 162.51  18.28  28.16   3.26   0.00   0.01   0.01   0.00   0.80     0.00    0.00    0.00

 20011673.70 298.72 385.93 100.66 358.26   0.00 162.51 675.61 766.51 782.67   8.77   1.35   4.99  47.14  43.36    11.05    0.04    1.37
1
    SWAT Jun 01 2011    VER 2009/Rev. 481                                           

    General Input/Output section (file.cio):                                        
    2013/12/18 0:00:00 ARCGIS-SWAT interface AV                                     
                                                                                    
Annual Summary for Watershed in year    2 of simulation

 UNIT                              PERCO   TILE                       WATER    SED    NO3    NO3    NO3    NO3        N       P       P
 TIME   PREC   SURQ   LATQ    GWQ   LATE      Q    SW     ET     PET  YIELD  YIELD   SURQ   LATQ   PERC   CROP  ORGANIC SOLUBLE ORGANIC
        (mm)   (mm)   (mm)   (mm)   (mm)   (mm)   (mm)   (mm)   (mm)   (mm) (t/ha)  -----------------(kg nutrient/ha)------------------
    1  78.37   2.15  10.90   0.00   0.38   0.00 204.04  19.64  28.07  12.95   0.01   0.02   0.20   0.16   3.77     0.01    0.00    0.00
    2  17.86   0.38   6.40   0.01   0.78   0.00 191.67  25.85  33.01   6.76   0.00   0.00   0.43   0.12   2.96     0.00    0.00    0.00
    3 110.94   7.31  14.47   0.00  10.55   0.00 218.20  42.92  54.06  21.63   0.07   0.05   0.67   2.29   4.63     0.05    0.00    0.01
    4 105.69  20.94  31.72   0.10  25.61   0.00 192.62  59.08  68.28  52.53   0.14   0.15   0.85   7.91  15.92     0.19    0.01    0.02
    5 119.49   7.87  21.64   0.41  10.78   0.00 201.64  67.96  81.44  29.76   0.02   0.06   0.28   2.67   6.45     0.02    0.00    0.00
    6 190.66  27.65  42.91   0.59  41.29   0.00 208.36  68.81  94.55  70.86   0.04   0.09   0.69  10.46   3.02     0.07    0.01    0.01
    7 264.07  47.16  65.27   5.49  65.66   0.00 208.69  82.88 113.91 117.65   0.09   0.13   0.77   8.43   2.20     0.16    0.01    0.02
    8 453.19 198.11  85.69  22.61  86.65   0.00 212.57  75.35 105.83 306.07   0.53   0.56   0.71   5.18   0.02     1.19    0.03    0.16
    9 175.65  29.87  46.39  23.28  37.14   0.00 222.16  57.56  81.18  99.37   0.07   0.13   0.33   2.12   0.00     0.11    0.01    0.02
   10  78.98   4.01  18.46  10.03  13.26   0.00 221.89  44.77  62.74  32.41   0.01   0.03   0.14   0.76   0.00     0.01    0.00    0.00
   11  50.34   1.97  13.85   6.50   7.21   0.00 223.08  29.16  41.32  22.27   0.00   0.02   0.11   0.39   0.00     0.00    0.00    0.00
   12  94.51   9.51  28.68   7.27  33.44   0.00 222.68  22.26  29.47  45.04   0.02   0.04   0.24   1.97   0.73     0.03    0.00    0.00

 20021739.74 356.92 386.39  76.30 332.75   0.00 222.68 596.24 793.85 817.29   1.00   1.27   5.41  42.46  39.70     1.84    0.07    0.25
1
    SWAT Jun 01 2011    VER 2009/Rev. 481                                           

    General Input/Output section (file.cio):                                        
    2013/12/18 0:00:00 ARCGIS-SWAT interface AV                                     
                                                                                    
Annual Summary for Watershed in year    3 of simulation

 UNIT                              PERCO   TILE                       WATER    SED    NO3    NO3    NO3    NO3        N       P       P
 TIME   PREC   SURQ   LATQ    GWQ   LATE      Q    SW     ET     PET  YIELD  YIELD   SURQ   LATQ   PERC   CROP  ORGANIC SOLUBLE ORGANIC
        (mm)   (mm)   (mm)   (mm)   (mm)   (mm)   (mm)   (mm)   (mm)   (mm) (t/ha)  -----------------(kg nutrient/ha)------------------
    1  66.20   7.85  21.02  12.79  19.64   0.00 223.01  19.37  26.00  41.45   0.03   0.04   0.26   1.20   3.88     0.03    0.00    0.00
    2  25.86   0.74   7.92   6.70   3.99   0.00 213.96  26.03  32.58  15.30   0.00   0.02   0.38   0.20   3.15     0.00    0.00    0.00
    3  71.54   3.17  15.41   2.75  13.48   0.00 217.78  34.76  41.26  21.11   0.02   0.02   0.77   1.05   3.34     0.02    0.00    0.00
    4 129.14  15.51  33.11   6.04  38.32   0.00 205.62  52.14  58.35  54.23   0.10   0.12   0.97   7.67  11.70     0.13    0.01    0.02
    5 146.91  26.89  30.92   4.96  28.48   0.00 192.64  72.42  82.72  62.43   0.13   0.11   0.45   5.03  13.94     0.19    0.01    0.03
    6 206.39  27.02  46.29   7.35  43.01   0.00 211.28  67.04  80.08  80.35   0.04   0.08   0.54   7.68   3.04     0.04    0.01    0.01
    7  25.50   1.70   9.57   2.17   0.17   0.00 162.52  70.48 147.81  13.44   0.00   0.01   0.12   0.01   1.97     0.00    0.00    0.00
    8 440.04 139.89  83.47   2.22  74.84   0.00 209.58  80.50 128.76 225.30   0.31   0.46   0.66   7.22   0.03     0.70    0.03    0.09
    9 150.66  32.14  40.60  10.35  30.03   0.00 206.01  58.70  92.59  82.96   0.08   0.14   0.31   1.76   0.00     0.13    0.01    0.02
   10  61.09  11.92  20.18   8.60   9.26   0.00 191.51  40.69  73.27  40.68   0.03   0.08   0.14   0.53   0.00     0.02    0.00    0.00
   11  18.69   0.41   3.80   2.08   0.00   0.00 183.48  24.55  46.96   6.27   0.00   0.02   0.03   0.00   0.00     0.00    0.00    0.00
   12   0.16   0.03   1.07   0.17   0.00   0.00 170.29  13.38  33.08   1.27   0.00   0.00   0.01   0.00   0.84     0.00    0.00    0.00

 20031342.17 267.27 313.34  66.18 261.23   0.00 170.29 560.05 843.44 644.78   0.76   1.10   4.64  32.35  41.88     1.27    0.07    0.17
1
    SWAT Jun 01 2011    VER 2009/Rev. 481                                           

    General Input/Output section (file.cio):                                        
    2013/12/18 0:00:00 ARCGIS-SWAT interface AV                                     
                                                                                    
Annual Summary for Watershed in year    4 of simulation

 UNIT                              PERCO   TILE                       WATER    SED    NO3    NO3    NO3    NO3        N       P       P
 TIME   PREC   SURQ   LATQ    GWQ   LATE      Q    SW     ET     PET  YIELD  YIELD   SURQ   LATQ   PERC   CROP  ORGANIC SOLUBLE ORGANIC
        (mm)   (mm)   (mm)   (mm)   (mm)   (mm)   (mm)   (mm)   (mm)   (mm) (t/ha)  -----------------(kg nutrient/ha)------------------
    1  34.00   0.34   2.75   0.00   0.00   0.00 185.11  14.99  28.79   3.06   0.01   0.01   0.03   0.00   4.67     0.00    0.00    0.00
    2  49.58   0.98  11.81   0.00   2.95   0.00 194.84  24.14  35.17  12.75   0.02   0.00   0.13   0.36   3.69     0.01    0.00    0.00
    3 125.03   7.29  23.84   0.06  21.43   0.00 223.11  35.86  46.42  30.86   0.13   0.06   0.31   1.29   3.83     0.07    0.00    0.01
    4 113.53   9.80  33.19   1.40  34.39   0.00 213.07  48.24  55.75  44.06   0.06   0.10   0.44   5.94   9.61     0.06    0.00    0.01
    5 246.74  43.17  45.64   6.22  57.32   0.00 230.14  61.04  68.27  94.42   0.25   0.17   0.45  10.12   9.78     0.29    0.01    0.04
    6  57.92   9.33  27.02  11.07  10.85   0.00 199.73  66.15  87.61  47.33   0.01   0.02   0.23   1.00   2.40     0.01    0.00    0.00
    7 160.57  12.04  27.34   0.89  19.85   0.00 214.59  79.76 123.81  40.17   0.02   0.03   0.20   1.15   2.56     0.02    0.00    0.00
    8 273.02  65.67  57.87   2.44  64.48   0.00 218.21  69.91 111.04 125.74   0.16   0.19   0.43   4.22   0.15     0.34    0.01    0.05
    9 296.34  84.18  86.34  16.69  85.61   0.00 209.30  57.49  82.48 186.93   0.22   0.27   0.56   3.62   0.00     0.32    0.02    0.05
   10   2.07   1.12  10.48  27.17   0.00   0.00 180.64  30.64  66.44  38.77   0.00   0.01   0.07   0.00   0.00     0.00    0.00    0.00
   11  13.24   0.24   3.05   3.79   0.00   0.00 172.04  20.70  45.43   7.08   0.00   0.01   0.02   0.00   0.00     0.00    0.00    0.00
   12  21.85   0.63   3.14   0.22   0.00   0.00 175.45  15.35  33.37   3.98   0.00   0.02   0.02   0.00   0.25     0.00    0.00    0.00

 20041393.89 234.81 332.46  69.95 296.90   0.00 175.45 524.28 784.58 635.12   0.87   0.89   2.88  27.70  36.94     1.14    0.05    0.16
1
    SWAT Jun 01 2011    VER 2009/Rev. 481                                           

    General Input/Output section (file.cio):                                        
    2013/12/18 0:00:00 ARCGIS-SWAT interface AV                                     
                                                                                    
Annual Summary for Watershed in year    5 of simulation

 UNIT                              PERCO   TILE                       WATER    SED    NO3    NO3    NO3    NO3        N       P       P
 TIME   PREC   SURQ   LATQ    GWQ   LATE      Q    SW     ET     PET  YIELD  YIELD   SURQ   LATQ   PERC   CROP  ORGANIC SOLUBLE ORGANIC
        (mm)   (mm)   (mm)   (mm)   (mm)   (mm)   (mm)   (mm)   (mm)   (mm) (t/ha)  -----------------(kg nutrient/ha)------------------
    1   5.16   0.01   0.54   0.00   0.00   0.00 169.57  10.84  29.41   0.55   0.00   0.00   0.01   0.00   1.10     0.00    0.00    0.00
    2 126.76   8.07  19.19   0.00  15.79   0.00 224.00  15.37  25.08  27.01   0.03   0.03   0.21   1.18   2.88     0.03    0.00    0.00
    3 143.26  17.22  40.65   2.37  48.66   0.00 228.32  27.12  35.72  59.70   0.13   0.10   0.32   3.96   3.98     0.14    0.01    0.02
    4  94.14  11.50  32.41  10.52  23.44   0.00 214.18  52.25  64.20  54.15   0.06   0.22   0.33   3.64  11.85     0.06    0.00    0.01
    5 379.18 116.52  85.65  20.29 102.75   0.00 217.93  61.37  66.23 221.36   0.80   0.33   0.53  11.29   7.41     0.95    0.03    0.13
    6 271.87  43.90  67.20  37.10  79.05   0.00 226.00  67.25  74.21 147.66   0.11   0.12   0.41   4.06   1.78     0.21    0.01    0.03
    7  49.81   2.92  21.78  20.06   3.14   0.00 186.83  78.99 130.07  44.74   0.00   0.01   0.14   0.13   2.83     0.00    0.00    0.00
    8 400.22 137.29  76.49   6.97  78.83   0.00 218.36  63.14 107.97 220.44   0.33   0.40   0.49   3.51   0.22     0.76    0.03    0.10
    9 161.47  58.88  46.38  28.39  37.45   0.00 192.50  56.06  97.37 133.54   0.16   0.18   0.29   1.41   0.00     0.33    0.01    0.05
   10 165.03  47.68  39.76  19.85  32.23   0.00 199.11  40.53  70.47 107.19   0.15   0.19   0.26   1.40   0.00     0.34    0.01    0.04
   11  26.42   1.50   7.87   4.11   1.05   0.00 192.47  25.92  49.27  13.46   0.00   0.02   0.05   0.03   0.00     0.00    0.00    0.00
   12  12.53   0.10   1.89   0.76   0.00   0.00 190.34  13.58  29.89   2.75   0.00   0.01   0.02   0.00   0.25     0.00    0.00    0.00

 20051835.87 445.58 439.80 150.42 422.39   0.00 190.34 512.43 779.891032.53   1.79   1.60   3.05  30.62  32.30     2.82    0.10    0.38
1
    SWAT Jun 01 2011    VER 2009/Rev. 481                                           

    General Input/Output section (file.cio):                                        
    2013/12/18 0:00:00 ARCGIS-SWAT interface AV                                     
                                                                                    
Annual Summary for Watershed in year    6 of simulation

 UNIT                              PERCO   TILE                       WATER    SED    NO3    NO3    NO3    NO3        N       P       P
 TIME   PREC   SURQ   LATQ    GWQ   LATE      Q    SW     ET     PET  YIELD  YIELD   SURQ   LATQ   PERC   CROP  ORGANIC SOLUBLE ORGANIC
        (mm)   (mm)   (mm)   (mm)   (mm)   (mm)   (mm)   (mm)   (mm)   (mm) (t/ha)  -----------------(kg nutrient/ha)------------------
    1  14.94   0.17   2.06   0.02   0.22   0.00 188.66  14.79  28.87   2.22   0.00   0.01   0.03   0.01   2.78     0.00    0.00    0.00
    2 107.19   5.56  15.01   0.03  14.32   0.00 224.25  23.96  38.11  20.41   0.05   0.02   0.13   0.75   5.24     0.03    0.00    0.00
    3 164.53  25.09  48.56   1.86  56.34   0.00 219.97  37.76  45.88  74.81   0.22   0.07   0.33   4.17   3.65     0.20    0.01    0.03
    4 199.83  31.87  51.20  13.60  57.56   0.00 222.88  53.53  61.03  95.87   0.19   0.29   0.41   8.70  10.95     0.21    0.01    0.03
    5 424.25 128.20  87.30  28.68 116.63   0.00 233.05  53.18  57.17 242.88   0.64   0.38   0.51   8.37   4.80     0.62    0.03    0.09
    6 262.48  80.63  92.20  56.68  81.66   0.00 204.78  67.91  81.55 228.97   0.35   0.22   0.48   2.08   1.91     0.40    0.02    0.05
    7 570.11 268.61  92.30  41.98  96.87   0.00 216.96  83.36 118.24 402.62   0.74   0.85   0.60   5.22   2.15     1.32    0.06    0.17
    8 155.36  23.39  49.84  33.40  25.02   0.00 211.51  81.84 122.40 106.47   0.03   0.07   0.32   0.82   0.44     0.03    0.00    0.00
    9 115.13  16.94  35.07  17.86  30.93   0.00 193.26  55.92  85.63  69.73   0.05   0.06   0.24   1.32   0.00     0.07    0.00    0.01
   10   1.51   0.11   4.13   3.40   0.00   0.00 163.51  31.24  79.68   7.63   0.00   0.00   0.04   0.00   0.00     0.00    0.00    0.00
   11 106.53   4.87  14.25   0.34   5.43   0.00 217.02  20.59  41.43  19.39   0.03   0.05   0.09   0.37   0.00     0.02    0.00    0.00
   12  84.10  14.70  28.45   2.45  23.39   0.00 218.64  20.85  32.70  45.27   0.05   0.05   0.22   1.71   0.79     0.03    0.00    0.01

 20062205.99 600.12 520.37 200.31 508.37   0.00 218.64 544.94 792.681316.26   2.34   2.07   3.39  33.52  32.71     2.93    0.14    0.39
1
    SWAT Jun 01 2011    VER 2009/Rev. 481                                           

    General Input/Output section (file.cio):                                        
    2013/12/18 0:00:00 ARCGIS-SWAT interface AV                                     
                                                                                    
Annual Summary for Watershed in year    7 of simulation

 UNIT                              PERCO   TILE                       WATER    SED    NO3    NO3    NO3    NO3        N       P       P
 TIME   PREC   SURQ   LATQ    GWQ   LATE      Q    SW     ET     PET  YIELD  YIELD   SURQ   LATQ   PERC   CROP  ORGANIC SOLUBLE ORGANIC
        (mm)   (mm)   (mm)   (mm)   (mm)   (mm)   (mm)   (mm)   (mm)   (mm) (t/ha)  -----------------(kg nutrient/ha)------------------
    1  39.80   2.03  11.08   5.36   8.45   0.00 218.02  20.29  31.92  18.32   0.01   0.01   0.10   0.49   5.16     0.01    0.00    0.00
    2  85.40   7.16  21.04   1.97  25.72   0.00 223.06  22.03  31.27  29.88   0.06   0.06   1.01   2.77   3.81     0.04    0.00    0.01
    3  82.46   4.80  25.18   9.96  24.83   0.00 219.26  33.95  41.67  39.60   0.04   0.02   0.86   4.17   3.03     0.03    0.00    0.00
    4 193.09  33.50  40.91  12.79  50.60   0.00 225.04  51.97  59.09  86.58   0.25   0.27   0.66   9.13  10.56     0.31    0.01    0.04
    5 126.58  13.00  26.90   8.27  23.52   0.00 220.98  70.07  79.53  47.87   0.05   0.06   0.30   3.63   3.34     0.05    0.00    0.01
    6 437.64 129.26 107.61  23.25 131.20   0.00 225.91  53.79  61.61 259.30   0.49   0.37   1.05  15.48   1.15     0.50    0.03    0.07
    7  55.20   4.37  25.39  30.97   5.71   0.00 188.41  74.56 143.33  60.69   0.00   0.01   0.22   0.27   3.03     0.00    0.00    0.00
    8 592.04 222.19 114.21  16.12 133.59   0.00 226.69  59.14  84.97 352.02   0.59   0.70   0.76   6.25   0.14     1.25    0.05    0.17
    9  69.98  15.33  39.71  45.16  22.53   0.00 194.16  48.39  90.91 100.10   0.03   0.05   0.24   0.72   0.00     0.06    0.00    0.01
   10  19.39   0.39   5.53  12.44   0.00   0.00 183.27  28.02  71.75  18.35   0.00   0.01   0.04   0.00   0.00     0.00    0.00    0.00
   11   6.25   0.20   2.52   1.04   0.00   0.00 171.40  18.09  43.00   3.75   0.00   0.01   0.02   0.00   0.00     0.00    0.00    0.00
   12  30.77   0.90   3.36   0.00   0.00   0.00 183.38  13.81  37.30   4.24   0.00   0.02   0.03   0.00   0.27     0.00    0.00    0.00

 20071738.59 433.11 423.44 167.34 426.16   0.00 183.38 494.11 776.341020.71   1.54   1.60   5.30  42.90  30.47     2.25    0.10    0.31
1
    SWAT Jun 01 2011    VER 2009/Rev. 481                                           

    General Input/Output section (file.cio):                                        
    2013/12/18 0:00:00 ARCGIS-SWAT interface AV                                     
                                                                                    
Annual Summary for Watershed in year    8 of simulation

 UNIT                              PERCO   TILE                       WATER    SED    NO3    NO3    NO3    NO3        N       P       P
 TIME   PREC   SURQ   LATQ    GWQ   LATE      Q    SW     ET     PET  YIELD  YIELD   SURQ   LATQ   PERC   CROP  ORGANIC SOLUBLE ORGANIC
        (mm)   (mm)   (mm)   (mm)   (mm)   (mm)   (mm)   (mm)   (mm)   (mm) (t/ha)  -----------------(kg nutrient/ha)------------------
    1  86.16   5.19   8.15   0.00   6.48   0.00 222.22  13.18  30.47  13.20   0.03   0.02   0.11   0.62   1.79     0.02    0.00    0.00
    2  43.14   3.58  25.36   0.65  15.73   0.00 216.42  17.13  30.61  29.40   0.01   0.01   0.29   0.96   3.10     0.01    0.00    0.00
    3 113.00  12.08  14.85   0.70  21.32   0.00 231.39  30.55  46.90  27.40   0.12   0.04   0.31   2.47   4.29     0.12    0.00    0.02
    4 123.39  21.09  45.23   4.98  43.94   0.00 216.54  42.18  52.02  70.69   0.12   0.13   0.91  12.42   9.64     0.10    0.01    0.01
    5 191.94  26.21  36.36  10.01  45.06   0.00 224.77  63.88  74.92  71.97   0.12   0.10   0.46   8.43   4.70     0.09    0.01    0.01
    6 336.43  96.34  79.78  18.84  92.66   0.00 228.87  56.43  68.80 194.32   0.23   0.24   0.61   7.25   1.56     0.25    0.02    0.03
    7 250.85  65.21  62.57  30.32  59.48   0.00 223.94  68.54 121.61 157.87   0.13   0.16   0.40   2.46   3.17     0.15    0.02    0.02
    8 185.12  37.20  57.02  24.38  49.53   0.00 217.26  59.19 114.23 118.35   0.06   0.09   0.35   1.67   0.26     0.10    0.01    0.01
    9 142.77  27.02  43.83  19.46  35.74   0.00 214.96  44.70  91.34  90.15   0.06   0.09   0.27   1.34   0.00     0.09    0.01    0.01
   10 114.54  42.71  29.54  15.35  24.74   0.00 203.78  33.12  70.57  87.54   0.14   0.11   0.20   1.26   0.00     0.23    0.01    0.03
   11  38.66   4.67  10.47   4.84   4.44   0.00 205.06  21.04  45.42  19.96   0.02   0.03   0.07   0.19   0.00     0.01    0.00    0.00
   12   4.89   0.14   1.55   1.04   0.10   0.00 195.79  13.79  34.18   2.72   0.00   0.00   0.02   0.00   0.41     0.00    0.00    0.00

 20081630.88 341.44 414.73 130.56 399.22   0.00 195.79 463.72 781.08 883.58   1.04   1.03   4.00  39.06  28.92     1.17    0.09    0.16
1
    SWAT Jun 01 2011    VER 2009/Rev. 481                                           

    General Input/Output section (file.cio):                                        
    2013/12/18 0:00:00 ARCGIS-SWAT interface AV                                     
                                                                                    
Annual Summary for Watershed in year    9 of simulation

 UNIT                              PERCO   TILE                       WATER    SED    NO3    NO3    NO3    NO3        N       P       P
 TIME   PREC   SURQ   LATQ    GWQ   LATE      Q    SW     ET     PET  YIELD  YIELD   SURQ   LATQ   PERC   CROP  ORGANIC SOLUBLE ORGANIC
        (mm)   (mm)   (mm)   (mm)   (mm)   (mm)   (mm)   (mm)   (mm)   (mm) (t/ha)  -----------------(kg nutrient/ha)------------------
    1  12.56   0.08   1.31   0.03   0.00   0.00 196.29  10.68  26.81   1.40   0.00   0.01   0.02   0.00   1.88     0.00    0.00    0.00
    2   9.30   0.06   0.98   0.00   0.00   0.00 186.79  17.33  34.32   1.02   0.00   0.00   0.01   0.00   4.61     0.00    0.00    0.00
    3 128.36   7.63  24.88   0.07  21.78   0.00 219.53  35.55  44.51  32.27   0.05   0.03   0.14   0.84   4.45     0.04    0.00    0.00
    4 109.07  11.55  27.39   1.19  28.61   0.00 215.73  44.30  54.79  39.84   0.04   0.11   0.18   2.06   9.38     0.04    0.00    0.01
    5 115.11  11.89  24.86   1.38  18.63   0.00 214.06  60.09  85.81  37.88   0.04   0.05   0.15   1.08   3.72     0.04    0.00    0.01
    6 247.32  46.50  61.70   5.48  72.82   0.00 220.04  51.99  62.38 113.20   0.10   0.12   0.41   5.37   1.44     0.13    0.01    0.02
    7 175.31  41.72  50.81  18.65  39.96   0.00 197.14  75.37 125.68 111.03   0.10   0.10   0.32   1.79   2.43     0.26    0.01    0.03
    8 262.58  55.32  59.44  14.90  59.16   0.00 211.56  67.91 111.79 129.39   0.11   0.13   0.37   2.22   0.16     0.22    0.02    0.03
    9  64.38   4.94  19.89   8.56   7.94   0.00 203.16  48.02  94.65  33.35   0.01   0.02   0.13   0.32   0.00     0.04    0.00    0.00
   10   2.40   0.18   4.82   1.97   0.16   0.00 176.89  28.47  71.36   6.97   0.00   0.00   0.04   0.00   0.00     0.00    0.00    0.00
   11  61.23   1.82  11.94   0.56   4.57   0.00 200.67  18.36  37.03  14.28   0.01   0.02   0.09   0.22   0.00     0.01    0.00    0.00
   12  53.47   1.07  10.79   1.12   9.95   0.00 213.74  15.50  26.73  12.88   0.00   0.01   0.10   0.54   0.59     0.00    0.00    0.00

 20091241.09 182.74 298.80  53.92 263.58   0.00 213.74 473.58 775.87 533.53   0.46   0.60   1.97  14.44  28.66     0.78    0.05    0.10
1
    SWAT Jun 01 2011    VER 2009/Rev. 481                                           

    General Input/Output section (file.cio):                                        
    2013/12/18 0:00:00 ARCGIS-SWAT interface AV                                     
                                                                                    
Annual Summary for Watershed in year   10 of simulation

 UNIT                              PERCO   TILE                       WATER    SED    NO3    NO3    NO3    NO3        N       P       P
 TIME   PREC   SURQ   LATQ    GWQ   LATE      Q    SW     ET     PET  YIELD  YIELD   SURQ   LATQ   PERC   CROP  ORGANIC SOLUBLE ORGANIC
        (mm)   (mm)   (mm)   (mm)   (mm)   (mm)   (mm)   (mm)   (mm)   (mm) (t/ha)  -----------------(kg nutrient/ha)------------------
    1  59.21   2.04  20.27   3.41  18.01   0.00 217.65  16.21  26.41  25.55   0.01   0.01   0.20   1.04   3.71     0.01    0.00    0.00
    2 121.97  15.78  37.34   6.92  46.17   0.00 221.04  15.60  20.47  59.44   0.09   0.04   0.24   2.76   2.99     0.08    0.01    0.01
    3 149.09  25.19  45.07  19.02  49.67   0.00 215.49  35.05  48.62  88.74   0.23   0.12   0.25   1.93   4.14     0.30    0.01    0.04
    4 216.33  32.54  58.74  26.50  71.52   0.00 221.79  40.58  44.89 117.05   0.21   0.16   0.44   9.58   8.26     0.21    0.01    0.03
    5 181.86  25.75  45.08  26.67  46.06   0.00 224.22  61.13  71.45  96.96   0.10   0.10   0.27   3.98   4.57     0.06    0.01    0.01
    6 388.46 111.19  93.41  30.00 112.74   0.00 221.62  64.21  76.13 233.94   0.37   0.32   0.55   5.14   2.25     0.56    0.03    0.08
    7 190.97  37.77  47.53  24.96  32.99   0.00 221.52  75.33 135.33 110.12   0.07   0.10   0.29   1.63   2.85     0.14    0.01    0.02
    8 174.08  27.60  42.82  13.12  33.79   0.00 218.43  76.00 128.95  83.39   0.05   0.07   0.28   1.60   0.51     0.10    0.01    0.01
    9 377.41 113.47  95.36  23.86 107.25   0.00 220.85  53.43  73.96 232.34   0.34   0.33   0.57   4.65   0.00     0.62    0.03    0.09
   10 141.65  47.89  42.37  39.93  29.96   0.00 219.79  34.37  57.00 130.09   0.22   0.12   0.25   1.14   0.00     0.34    0.01    0.05
   11   9.58   1.47   9.82  17.70   0.44   0.00 204.26  23.36  43.40  28.97   0.00   0.01   0.07   0.01   0.00     0.00    0.00    0.00
   12  38.97   2.13   7.47   3.85   2.40   0.00 214.86  17.05  31.95  13.40   0.00   0.02   0.05   0.09   0.86     0.00    0.00    0.00

 20102049.59 442.83 545.27 235.94 551.02   0.00 214.86 512.31 758.561219.97   1.71   1.41   3.47  33.53  30.13     2.43    0.13    0.34
1
    SWAT Jun 01 2011    VER 2009/Rev. 481                                           

    General Input/Output section (file.cio):                                        
    2013/12/18 0:00:00 ARCGIS-SWAT interface AV                                     
                                                                                    
    FINAL VALUES

1
    SWAT Jun 01 2011    VER 2009/Rev. 481                                           

    General Input/Output section (file.cio):                                        
    2013/12/18 0:00:00 ARCGIS-SWAT interface AV                                     
                                                                                    
                                            Average Crop Values
                                 Crop 1              Crop 2              Crop 3
                             Yld      Biomass   Yld      Biomass      Yld      Biomass
                           (kg/ha)    (kg/ha)  (kg/ha)   (kg/ha)     (kg/ha)    (kg/ha)

 RICE  HRU      1 Rot   1     0.0       0.0    2691.0    7033.4       0.0       0.0
 FRST  HRU      2 Rot   1     0.0   34488.4       0.0   14761.2       0.0       0.0
 FRST  HRU      3 Rot   1     0.0   26276.5       0.0   13770.7       0.0       0.0
 RICE  HRU      4 Rot   1     0.0       0.0    2543.0    6655.9       0.0       0.0
 RICE  HRU      5 Rot   1     0.0       0.0    2703.0    7048.0       0.0       0.0
 RICE  HRU      6 Rot   1     0.0       0.0    2643.6    6889.7       0.0       0.0
 FRST  HRU      7 Rot   1     0.0   33250.4       0.0   13701.4       0.0       0.0
 FRST  HRU      8 Rot   1     0.0   25931.6       0.0   12817.6       0.0       0.0
 BERM  HRU      9 Rot   1     0.0       0.0   12281.0   17578.3       0.0       0.0
 BERM  HRU     10 Rot   1     0.0       0.0   12846.2   18393.0       0.0       0.0
 BERM  HRU     11 Rot   1     0.0       0.0   13053.0   18689.3       0.0       0.0
 FRST  HRU     12 Rot   1     0.0   27192.8       0.0   14446.4       0.0       0.0
 FRST  HRU     13 Rot   1     0.0   34419.6       0.0   14755.5       0.0       0.0
 ORCD  HRU     14 Rot   1     0.0   27171.8       0.0   11238.4       0.0       0.0
 BERM  HRU     15 Rot   1     0.0       0.0   15612.3   22341.7       0.0       0.0
 BERM  HRU     16 Rot   1     0.0       0.0   15037.1   21537.3       0.0       0.0
 BERM  HRU     17 Rot   1     0.0       0.0   15922.5   22786.9       0.0       0.0
 RICE  HRU     18 Rot   1     0.0       0.0    2677.2    6982.3       0.0       0.0
 RICE  HRU     19 Rot   1     0.0       0.0    2655.2    6919.4       0.0       0.0
 RICE  HRU     20 Rot   1     0.0       0.0    2591.8    6779.0       0.0       0.0
 FRST  HRU     21 Rot   1     0.0   26322.2       0.0   14205.1       0.0       0.0
 FRST  HRU     22 Rot   1     0.0   33376.9       0.0   14407.7       0.0       0.0
 ORCD  HRU     23 Rot   1     0.0   26594.2       0.0   11100.1       0.0       0.0
 ORCD  HRU     24 Rot   1     0.0   26477.5       0.0   11009.5       0.0       0.0
 RICE  HRU     25 Rot   1     0.0       0.0    2766.4    7210.2       0.0       0.0
 RICE  HRU     26 Rot   1     0.0       0.0    2693.4    7038.8       0.0       0.0
 RICE  HRU     27 Rot   1     0.0       0.0    2825.8    7359.1       0.0       0.0
 RICE  HRU     28 Rot   1     0.0       0.0    2818.9    7340.9       0.0       0.0
 FRST  HRU     29 Rot   1     0.0   27204.6       0.0   14466.3       0.0       0.0
 FRST  HRU     30 Rot   1     0.0   34534.2       0.0   14762.8       0.0       0.0
 FRST  HRU     31 Rot   1     0.0   26272.0       0.0   13766.1       0.0       0.0
 ORCD  HRU     32 Rot   1     0.0   27135.1       0.0   11257.2       0.0       0.0
 ORCD  HRU     33 Rot   1     0.0   27088.3       0.0   11176.7       0.0       0.0
 RICE  HRU     34 Rot   1     0.0       0.0    2732.5    7113.5       0.0       0.0
 RICE  HRU     35 Rot   1     0.0       0.0    2692.4    7014.4       0.0       0.0
 RICE  HRU     36 Rot   1     0.0       0.0    2684.0    6989.5       0.0       0.0
 FRST  HRU     37 Rot   1     0.0   26581.1       0.0   13973.8       0.0       0.0
 FRST  HRU     38 Rot   1     0.0   34007.0       0.0   14093.1       0.0       0.0
 ORCD  HRU     39 Rot   1     0.0   26816.2       0.0   10859.7       0.0       0.0
 ORCD  HRU     40 Rot   1     0.0   26966.9       0.0   10868.4       0.0       0.0
 BERM  HRU     41 Rot   1     0.0       0.0   13814.5   19769.6       0.0       0.0
 BERM  HRU     42 Rot   1     0.0       0.0   15636.6   22375.0       0.0       0.0
 BERM  HRU     43 Rot   1     0.0       0.0   16424.6   23534.8       0.0       0.0
 BERM  HRU     44 Rot   1     0.0       0.0   12227.1   17500.4       0.0       0.0
 BERM  HRU     45 Rot   1     0.0       0.0   12192.8   17450.7       0.0       0.0
 FRST  HRU     46 Rot   1     0.0   26554.6       0.0   13439.8       0.0       0.0
 FRST  HRU     47 Rot   1     0.0   33209.8       0.0   13622.2       0.0       0.0
 ORCD  HRU     48 Rot   1     0.0   26675.8       0.0   10505.0       0.0       0.0
 ORCD  HRU     49 Rot   1     0.0   26679.9       0.0   10493.7       0.0       0.0
 ORCD  HRU     50 Rot   1     0.0   26831.2       0.0   10509.1       0.0       0.0
 WWHT  HRU     51 Rot   1     0.0       0.0    3437.5   11131.2       0.0       0.0
 WWHT  HRU     52 Rot   1     0.0       0.0    3411.0   11045.2       0.0       0.0
 FRST  HRU     53 Rot   1     0.0   27200.8       0.0   14459.5       0.0       0.0
 FRST  HRU     54 Rot   1     0.0   34436.0       0.0   14757.2       0.0       0.0
 ORCD  HRU     55 Rot   1     0.0   27162.0       0.0   11258.1       0.0       0.0
 RICE  HRU     56 Rot   1     0.0       0.0    2685.1    6996.6       0.0       0.0
 RICE  HRU     57 Rot   1     0.0       0.0    2660.5    6942.7       0.0       0.0
 RICE  HRU     58 Rot   1     0.0       0.0    2810.4    7311.0       0.0       0.0
 FRST  HRU     59 Rot   1     0.0   33940.7       0.0   14085.5       0.0       0.0
 FRST  HRU     60 Rot   1     0.0   33308.3       0.0   14152.8       0.0       0.0
 ORCD  HRU     61 Rot   1     0.0   26962.8       0.0   10868.4       0.0       0.0
 ORCD  HRU     62 Rot   1     0.0   26681.6       0.0   10788.8       0.0       0.0
 BERM  HRU     63 Rot   1     0.0       0.0   17970.5   25750.2       0.0       0.0
 BERM  HRU     64 Rot   1     0.0       0.0   13760.8   19699.5       0.0       0.0
 BERM  HRU     65 Rot   1     0.0       0.0   11709.2   16762.1       0.0       0.0
 BERM  HRU     66 Rot   1     0.0       0.0   11765.4   16842.7       0.0       0.0
 FRST  HRU     67 Rot   1     0.0   26371.8       0.0   14095.5       0.0       0.0
 ORCD  HRU     68 Rot   1     0.0   26317.7       0.0   10892.0       0.0       0.0
 FRST  HRU     69 Rot   1     0.0   26369.6       0.0   14094.0       0.0       0.0
 ORCD  HRU     70 Rot   1     0.0   26315.5       0.0   10892.2       0.0       0.0
 RICE  HRU     71 Rot   1     0.0       0.0    2642.9    6886.4       0.0       0.0
 RICE  HRU     72 Rot   1     0.0       0.0    2922.4    7582.9       0.0       0.0
 RICE  HRU     73 Rot   1     0.0       0.0    2525.6    6600.1       0.0       0.0
 RICE  HRU     74 Rot   1     0.0       0.0    2502.2    6535.8       0.0       0.0
 FRST  HRU     75 Rot   1     0.0   33343.9       0.0   14402.6       0.0       0.0
 FRST  HRU     76 Rot   1     0.0   34293.2       0.0   14483.1       0.0       0.0
 FRST  HRU     77 Rot   1     0.0   25418.9       0.0   13713.4       0.0       0.0
 ORCD  HRU     78 Rot   1     0.0   26561.0       0.0   11079.6       0.0       0.0
 ORCD  HRU     79 Rot   1     0.0   26399.5       0.0   11000.3       0.0       0.0
 RICE  HRU     80 Rot   1     0.0       0.0    2646.5    6911.8       0.0       0.0
 RICE  HRU     81 Rot   1     0.0       0.0    2766.8    7211.7       0.0       0.0
 RICE  HRU     82 Rot   1     0.0       0.0    2772.2    7226.4       0.0       0.0
 FRST  HRU     83 Rot   1     0.0   32176.9       0.0   14694.7       0.0       0.0
 FRST  HRU     84 Rot   1     0.0   25447.7       0.0   13778.0       0.0       0.0
 ORCD  HRU     85 Rot   1     0.0   25988.2       0.0   11130.9       0.0       0.0
 BERM  HRU     86 Rot   1     0.0       0.0   15837.4   22673.9       0.0       0.0
 BERM  HRU     87 Rot   1     0.0       0.0   12928.2   18515.1       0.0       0.0
 RICE  HRU     88 Rot   1     0.0       0.0    2110.8    5570.6       0.0       0.0
 RICE  HRU     89 Rot   1     0.0       0.0    2042.4    5385.5       0.0       0.0
 RICE  HRU     90 Rot   1     0.0       0.0    2016.8    5315.4       0.0       0.0
 FRST  HRU     91 Rot   1     0.0   22329.5       0.0   12023.4       0.0       0.0
 ORCD  HRU     92 Rot   1     0.0   22772.0       0.0    8473.0       0.0       0.0
 ORCD  HRU     93 Rot   1     0.0   22982.1       0.0    8480.8       0.0       0.0
 ORCD  HRU     94 Rot   1     0.0   22694.6       0.0    8467.4       0.0       0.0
 RICE  HRU     95 Rot   1     0.0       0.0    2032.8    5363.5       0.0       0.0
 RICE  HRU     96 Rot   1     0.0       0.0    2009.0    5299.5       0.0       0.0
 RICE  HRU     97 Rot   1     0.0       0.0    2143.8    5651.6       0.0       0.0
 RICE  HRU     98 Rot   1     0.0       0.0    2140.6    5642.3       0.0       0.0
 FRST  HRU     99 Rot   1     0.0   22139.7       0.0   11981.5       0.0       0.0
 FRST  HRU    100 Rot   1     0.0   25699.5       0.0   12082.7       0.0       0.0
 ORCD  HRU    101 Rot   1     0.0   22559.2       0.0    8375.1       0.0       0.0
 ORCD  HRU    102 Rot   1     0.0   22450.8       0.0    8362.1       0.0       0.0
 FRST  HRU    103 Rot   1     0.0   26737.3       0.0   13474.6       0.0       0.0
 FRST  HRU    104 Rot   1     0.0   33259.7       0.0   13703.2       0.0       0.0
 ORCD  HRU    105 Rot   1     0.0   26318.6       0.0   10655.3       0.0       0.0
 ORCD  HRU    106 Rot   1     0.0   26362.4       0.0   10660.6       0.0       0.0
 ORCD  HRU    107 Rot   1     0.0   26253.8       0.0   10391.0       0.0       0.0
 RICE  HRU    108 Rot   1     0.0       0.0    2103.7    5555.6       0.0       0.0
 RICE  HRU    109 Rot   1     0.0       0.0    2098.6    5487.9       0.0       0.0
 FRST  HRU    110 Rot   1     0.0   22010.8       0.0   12208.3       0.0       0.0
 FRST  HRU    111 Rot   1     0.0   27282.3       0.0   12285.9       0.0       0.0
 ORCD  HRU    112 Rot   1     0.0   22214.0       0.0    8340.2       0.0       0.0
 ORCD  HRU    113 Rot   1     0.0   22332.3       0.0    8353.3       0.0       0.0
 ORCD  HRU    114 Rot   1     0.0   22183.8       0.0    8330.2       0.0       0.0
 RICE  HRU    115 Rot   1     0.0       0.0    2027.7    5358.9       0.0       0.0
 RICE  HRU    116 Rot   1     0.0       0.0    2131.4    5612.3       0.0       0.0
 RICE  HRU    117 Rot   1     0.0       0.0    2139.4    5645.8       0.0       0.0
 WWHT  HRU    118 Rot   1     0.0       0.0    2808.8    9083.7       0.0       0.0
 WWHT  HRU    119 Rot   1     0.0       0.0    2835.6    9170.3       0.0       0.0
 WWHT  HRU    120 Rot   1     0.0       0.0    2830.1    9152.5       0.0       0.0
 FRST  HRU    121 Rot   1     0.0   21419.0       0.0   12168.0       0.0       0.0
 BERM  HRU    122 Rot   1     0.0       0.0   12761.9   18270.5       0.0       0.0
 BERM  HRU    123 Rot   1     0.0       0.0   12189.1   17467.1       0.0       0.0
 BERM  HRU    124 Rot   1     0.0       0.0   12130.5   17382.7       0.0       0.0
 FRST  HRU    125 Rot   1     0.0   26554.1       0.0   13431.0       0.0       0.0
 FRST  HRU    126 Rot   1     0.0   33039.4       0.0   13622.4       0.0       0.0
 ORCD  HRU    127 Rot   1     0.0   26666.6       0.0   10504.3       0.0       0.0
 ORCD  HRU    128 Rot   1     0.0   26826.6       0.0   10509.1       0.0       0.0
 ORCD  HRU    129 Rot   1     0.0   26611.9       0.0   10433.0       0.0       0.0
 RICE  HRU    130 Rot   1     0.0       0.0    2119.9    5610.7       0.0       0.0
 RICE  HRU    131 Rot   1     0.0       0.0    2055.7    5435.5       0.0       0.0
 RICE  HRU    132 Rot   1     0.0       0.0    2130.5    5633.8       0.0       0.0
 RICE  HRU    133 Rot   1     0.0       0.0    2123.6    5614.7       0.0       0.0
 FRST  HRU    134 Rot   1     0.0   22164.2       0.0   12270.4       0.0       0.0
 ORCD  HRU    135 Rot   1     0.0   22405.1       0.0    8574.9       0.0       0.0
 ORCD  HRU    136 Rot   1     0.0   22411.3       0.0    8563.9       0.0       0.0
 BERM  HRU    137 Rot   1     0.0       0.0   12422.7   17809.1       0.0       0.0
 BERM  HRU    138 Rot   1     0.0       0.0   14440.9   20704.3       0.0       0.0
 BERM  HRU    139 Rot   1     0.0       0.0   12678.6   18173.9       0.0       0.0
 BERM  HRU    140 Rot   1     0.0       0.0   12517.5   17943.8       0.0       0.0
 BERM  HRU    141 Rot   1     0.0       0.0   12545.8   17984.6       0.0       0.0
 FRST  HRU    142 Rot   1     0.0   33171.8       0.0   13622.7       0.0       0.0
 ORCD  HRU    143 Rot   1     0.0   26839.4       0.0   10509.1       0.0       0.0
 ORCD  HRU    144 Rot   1     0.0   26610.7       0.0   10434.8       0.0       0.0
 BERM  HRU    145 Rot   1     0.0       0.0   16240.1   23266.6       0.0       0.0
 BERM  HRU    146 Rot   1     0.0       0.0   17690.3   25342.4       0.0       0.0
 BERM  HRU    147 Rot   1     0.0       0.0   13781.5   19724.7       0.0       0.0
 BERM  HRU    148 Rot   1     0.0       0.0   12263.5   17549.0       0.0       0.0
 FRST  HRU    149 Rot   1     0.0   21942.7       0.0   11394.9       0.0       0.0
 FRST  HRU    150 Rot   1     0.0   27372.0       0.0   11441.1       0.0       0.0
 FRST  HRU    151 Rot   1     0.0   21425.4       0.0   11306.3       0.0       0.0
 ORCD  HRU    152 Rot   1     0.0   22293.4       0.0    7977.6       0.0       0.0
 ORCD  HRU    153 Rot   1     0.0   22150.9       0.0    7973.1       0.0       0.0
 WWHT  HRU    154 Rot   1     0.0       0.0    2868.1    9275.7       0.0       0.0
 WWHT  HRU    155 Rot   1     0.0       0.0    2835.5    9170.3       0.0       0.0
 WWHT  HRU    156 Rot   1     0.0       0.0    2800.4    9056.9       0.0       0.0
 WWHT  HRU    157 Rot   1     0.0       0.0    2796.5    9044.1       0.0       0.0
 FRST  HRU    158 Rot   1     0.0   21943.7       0.0   11395.5       0.0       0.0
 ORCD  HRU    159 Rot   1     0.0   22294.2       0.0    7977.9       0.0       0.0
 ORCD  HRU    160 Rot   1     0.0   22147.5       0.0    7973.3       0.0       0.0
 BERM  HRU    161 Rot   1     0.0       0.0   14355.8   20562.4       0.0       0.0
 BERM  HRU    162 Rot   1     0.0       0.0   11524.5   16503.3       0.0       0.0
 WWHT  HRU    163 Rot   1     0.0       0.0    2835.5    9170.3       0.0       0.0
 WWHT  HRU    164 Rot   1     0.0       0.0    2864.1    9262.9       0.0       0.0
 WWHT  HRU    165 Rot   1     0.0       0.0    2835.6    9170.5       0.0       0.0
 WWHT  HRU    166 Rot   1     0.0       0.0    2800.4    9056.8       0.0       0.0
 FRST  HRU    167 Rot   1     0.0   21960.5       0.0   11399.1       0.0       0.0
 FRST  HRU    168 Rot   1     0.0   27360.7       0.0   11441.1       0.0       0.0
 ORCD  HRU    169 Rot   1     0.0   22282.8       0.0    7977.1       0.0       0.0
 BERM  HRU    170 Rot   1     0.0       0.0   14317.9   20508.0       0.0       0.0
 BERM  HRU    171 Rot   1     0.0       0.0   11516.3   16491.3       0.0       0.0
 FRST  HRU    172 Rot   1     0.0   22007.8       0.0   11407.6       0.0       0.0
 FRST  HRU    173 Rot   1     0.0   21680.6       0.0   11397.4       0.0       0.0
 ORCD  HRU    174 Rot   1     0.0   22146.3       0.0    7973.5       0.0       0.0
 BERM  HRU    175 Rot   1     0.0       0.0   13089.6   18750.7       0.0       0.0
 BERM  HRU    176 Rot   1     0.0       0.0   13888.5   19884.5       0.0       0.0
 WATR  HRU    177 Rot   1     0.0       0.0       0.0       0.0       0.0       0.0
 WATR  HRU    178 Rot   1     0.0       0.0       0.0       0.0       0.0       0.0
 FRST  HRU    179 Rot   1     0.0   26593.3       0.0   13989.8       0.0       0.0
 ORCD  HRU    180 Rot   1     0.0   26819.8       0.0   10860.2       0.0       0.0
 ORCD  HRU    181 Rot   1     0.0   26964.9       0.0   10868.4       0.0       0.0
 ORCD  HRU    182 Rot   1     0.0   26677.8       0.0   10794.6       0.0       0.0
 FRST  HRU    183 Rot   1     0.0   22513.9       0.0   12057.6       0.0       0.0
 ORCD  HRU    184 Rot   1     0.0   22821.3       0.0    8393.4       0.0       0.0
 ORCD  HRU    185 Rot   1     0.0   23077.8       0.0    8395.8       0.0       0.0
 ORCD  HRU    186 Rot   1     0.0   22934.6       0.0    8395.8       0.0       0.0
 FRST  HRU    187 Rot   1     0.0   22446.2       0.0   12261.6       0.0       0.0
 ORCD  HRU    188 Rot   1     0.0   22728.3       0.0    8421.4       0.0       0.0
 ORCD  HRU    189 Rot   1     0.0   22571.7       0.0    8424.9       0.0       0.0
 FRST  HRU    190 Rot   1     0.0   22434.5       0.0   12248.2       0.0       0.0
 ORCD  HRU    191 Rot   1     0.0   22795.1       0.0    8430.6       0.0       0.0
 ORCD  HRU    192 Rot   1     0.0   22861.4       0.0    8417.7       0.0       0.0
 FRST  HRU    193 Rot   1     0.0   22095.5       0.0   12105.9       0.0       0.0
 ORCD  HRU    194 Rot   1     0.0   22685.1       0.0    8381.3       0.0       0.0
 ORCD  HRU    195 Rot   1     0.0   22794.8       0.0    8384.6       0.0       0.0
 ORCD  HRU    196 Rot   1     0.0   22667.9       0.0    8382.7       0.0       0.0
 RICE  HRU    197 Rot   1     0.0       0.0    2143.8    5631.6       0.0       0.0
 RICE  HRU    198 Rot   1     0.0       0.0    2181.7    5733.1       0.0       0.0
 RICE  HRU    199 Rot   1     0.0       0.0    2151.1    5621.9       0.0       0.0
 RICE  HRU    200 Rot   1     0.0       0.0    2105.9    5534.9       0.0       0.0
 FRST  HRU    201 Rot   1     0.0   22345.7       0.0   12204.5       0.0       0.0
 FRST  HRU    202 Rot   1     0.0   27986.4       0.0   12307.4       0.0       0.0
 FRST  HRU    203 Rot   1     0.0   21772.8       0.0   12172.8       0.0       0.0
 ORCD  HRU    204 Rot   1     0.0   23025.1       0.0    8435.0       0.0       0.0
 ORCD  HRU    205 Rot   1     0.0   22942.3       0.0    8428.6       0.0       0.0
 BERM  HRU    206 Rot   1     0.0       0.0   14744.4   21129.4       0.0       0.0
 BERM  HRU    207 Rot   1     0.0       0.0   14495.3   20772.9       0.0       0.0
 BERM  HRU    208 Rot   1     0.0       0.0   15456.9   22163.8       0.0       0.0
 BERM  HRU    209 Rot   1     0.0       0.0   16228.8   23268.4       0.0       0.0
 BERM  HRU    210 Rot   1     0.0       0.0   11197.8   16046.4       0.0       0.0
 BERM  HRU    211 Rot   1     0.0       0.0   11300.3   16193.9       0.0       0.0
 FRST  HRU    212 Rot   1     0.0   22094.8       0.0   11813.3       0.0       0.0
 FRST  HRU    213 Rot   1     0.0   27295.2       0.0   11821.8       0.0       0.0
 ORCD  HRU    214 Rot   1     0.0   22070.8       0.0    8192.4       0.0       0.0
 ORCD  HRU    215 Rot   1     0.0   22045.2       0.0    8181.8       0.0       0.0
 RICE  HRU    216 Rot   1     0.0       0.0    2081.7    5545.2       0.0       0.0
 RICE  HRU    217 Rot   1     0.0       0.0    2073.4    5524.1       0.0       0.0
 FRST  HRU    218 Rot   1     0.0   27293.2       0.0   11820.6       0.0       0.0
 ORCD  HRU    219 Rot   1     0.0   22079.3       0.0    8191.8       0.0       0.0
 ORCD  HRU    220 Rot   1     0.0   22167.8       0.0    8182.7       0.0       0.0
 RICE  HRU    221 Rot   1     0.0       0.0    2097.8    5530.5       0.0       0.0
 RICE  HRU    222 Rot   1     0.0       0.0    2107.6    5556.9       0.0       0.0
 RICE  HRU    223 Rot   1     0.0       0.0    2049.2    5407.2       0.0       0.0
 RICE  HRU    224 Rot   1     0.0       0.0    2037.8    5376.8       0.0       0.0
 RICE  HRU    225 Rot   1     0.0       0.0    2176.1    5732.4       0.0       0.0
 RICE  HRU    226 Rot   1     0.0       0.0    2168.2    5710.0       0.0       0.0
 FRST  HRU    227 Rot   1     0.0   22252.3       0.0   12303.2       0.0       0.0
 ORCD  HRU    228 Rot   1     0.0   22608.1       0.0    8534.1       0.0       0.0
 ORCD  HRU    229 Rot   1     0.0   22830.5       0.0    8541.9       0.0       0.0
 ORCD  HRU    230 Rot   1     0.0   22520.9       0.0    8533.6       0.0       0.0
 BERM  HRU    231 Rot   1     0.0       0.0   14472.6   20748.9       0.0       0.0
 BERM  HRU    232 Rot   1     0.0       0.0   14651.7   21004.0       0.0       0.0
 BERM  HRU    233 Rot   1     0.0       0.0   11195.6   16046.0       0.0       0.0
 BERM  HRU    234 Rot   1     0.0       0.0   11235.8   16104.2       0.0       0.0
 WWHT  HRU    235 Rot   1     0.0       0.0    2939.9    9507.8       0.0       0.0
 WWHT  HRU    236 Rot   1     0.0       0.0    2954.8    9555.8       0.0       0.0
 FRST  HRU    237 Rot   1     0.0   22539.6       0.0   12068.8       0.0       0.0
 FRST  HRU    238 Rot   1     0.0   28243.5       0.0   12173.9       0.0       0.0
 ORCD  HRU    239 Rot   1     0.0   23080.6       0.0    8395.7       0.0       0.0
 FRST  HRU    240 Rot   1     0.0   22160.6       0.0   12114.0       0.0       0.0
 FRST  HRU    241 Rot   1     0.0   27713.8       0.0   12124.4       0.0       0.0
 FRST  HRU    242 Rot   1     0.0   21536.9       0.0   12076.0       0.0       0.0
 ORCD  HRU    243 Rot   1     0.0   22625.5       0.0    8381.9       0.0       0.0
 ORCD  HRU    244 Rot   1     0.0   22757.8       0.0    8383.3       0.0       0.0
 ORCD  HRU    245 Rot   1     0.0   22670.7       0.0    8384.3       0.0       0.0
 BERM  HRU    246 Rot   1     0.0       0.0   14251.5   20410.0       0.0       0.0
 BERM  HRU    247 Rot   1     0.0       0.0   14038.5   20101.3       0.0       0.0
 RICE  HRU    248 Rot   1     0.0       0.0    2058.8    5433.1       0.0       0.0
 RICE  HRU    249 Rot   1     0.0       0.0    2165.5    5702.3       0.0       0.0
 RICE  HRU    250 Rot   1     0.0       0.0    2168.7    5711.0       0.0       0.0
 FRST  HRU    251 Rot   1     0.0   27763.6       0.0   12418.2       0.0       0.0
 FRST  HRU    252 Rot   1     0.0   21556.9       0.0   12229.7       0.0       0.0
 ORCD  HRU    253 Rot   1     0.0   22829.5       0.0    8541.8       0.0       0.0
 ORCD  HRU    254 Rot   1     0.0   22546.7       0.0    8532.1       0.0       0.0
 BERM  HRU    255 Rot   1     0.0       0.0   16322.3   23406.4       0.0       0.0
 BERM  HRU    256 Rot   1     0.0       0.0   15377.3   22051.7       0.0       0.0
 BERM  HRU    257 Rot   1     0.0       0.0   14162.4   20295.0       0.0       0.0
 BERM  HRU    258 Rot   1     0.0       0.0   11238.8   16108.3       0.0       0.0
 BERM  HRU    259 Rot   1     0.0       0.0   11213.6   16072.0       0.0       0.0
 RICE  HRU    260 Rot   1     0.0       0.0    2255.1    5924.0       0.0       0.0
 FRST  HRU    261 Rot   1     0.0   23141.1       0.0   13663.7       0.0       0.0
 ORCD  HRU    262 Rot   1     0.0   23239.1       0.0    9484.9       0.0       0.0
 FRST  HRU    263 Rot   1     0.0   23125.2       0.0   13660.4       0.0       0.0
 FRST  HRU    264 Rot   1     0.0   28875.4       0.0   13800.9       0.0       0.0
 FRST  HRU    265 Rot   1     0.0   22363.8       0.0   13546.0       0.0       0.0
 ORCD  HRU    266 Rot   1     0.0   23233.2       0.0    9492.5       0.0       0.0
 ORCD  HRU    267 Rot   1     0.0   23175.0       0.0    9465.3       0.0       0.0
 FRST  HRU    268 Rot   1     0.0   23193.2       0.0   13683.7       0.0       0.0
 FRST  HRU    269 Rot   1     0.0   26507.1       0.0   13740.9       0.0       0.0
 FRST  HRU    270 Rot   1     0.0   28866.2       0.0   13799.4       0.0       0.0
 RICE  HRU    271 Rot   1     0.0       0.0    2325.6    6056.4       0.0       0.0
 RICE  HRU    272 Rot   1     0.0       0.0    2325.7    6056.7       0.0       0.0
 RICE  HRU    273 Rot   1     0.0       0.0    2226.1    5805.0       0.0       0.0
 RICE  HRU    274 Rot   1     0.0       0.0    2215.3    5776.3       0.0       0.0
 FRST  HRU    275 Rot   1     0.0   23082.9       0.0   13647.5       0.0       0.0
 FRST  HRU    276 Rot   1     0.0   28844.2       0.0   13798.0       0.0       0.0
 ORCD  HRU    277 Rot   1     0.0   23244.2       0.0    9484.6       0.0       0.0
 ORCD  HRU    278 Rot   1     0.0   23566.0       0.0    9503.2       0.0       0.0
 BERM  HRU    279 Rot   1     0.0       0.0   13657.9   19581.3       0.0       0.0
 BERM  HRU    280 Rot   1     0.0       0.0   13679.8   19607.1       0.0       0.0
 BERM  HRU    281 Rot   1     0.0       0.0   13666.4   19587.8       0.0       0.0
 RICE  HRU    282 Rot   1     0.0       0.0    2138.6    5642.2       0.0       0.0
 FRST  HRU    283 Rot   1     0.0   22175.3       0.0   12174.2       0.0       0.0
 FRST  HRU    284 Rot   1     0.0   27564.9       0.0   12238.3       0.0       0.0
 ORCD  HRU    285 Rot   1     0.0   22332.3       0.0    8356.8       0.0       0.0
 ORCD  HRU    286 Rot   1     0.0   22412.9       0.0    8358.2       0.0       0.0
 RICE  HRU    287 Rot   1     0.0       0.0    2176.4    5689.4       0.0       0.0
 RICE  HRU    288 Rot   1     0.0       0.0    2134.4    5626.7       0.0       0.0
 RICE  HRU    289 Rot   1     0.0       0.0    2130.6    5618.3       0.0       0.0
 FRST  HRU    290 Rot   1     0.0   22182.8       0.0   12174.2       0.0       0.0
 FRST  HRU    291 Rot   1     0.0   27513.0       0.0   12238.1       0.0       0.0
 ORCD  HRU    292 Rot   1     0.0   22350.1       0.0    8356.3       0.0       0.0
 ORCD  HRU    293 Rot   1     0.0   22424.9       0.0    8358.5       0.0       0.0
 BERM  HRU    294 Rot   1     0.0       0.0   12639.7   18105.2       0.0       0.0
 BERM  HRU    295 Rot   1     0.0       0.0   12944.7   18543.5       0.0       0.0
 BERM  HRU    296 Rot   1     0.0       0.0   12137.9   17398.7       0.0       0.0
 BERM  HRU    297 Rot   1     0.0       0.0   12177.4   17455.2       0.0       0.0
 RICE  HRU    298 Rot   1     0.0       0.0    2123.3    5695.9       0.0       0.0
 RICE  HRU    299 Rot   1     0.0       0.0    2058.9    5523.9       0.0       0.0
 RICE  HRU    300 Rot   1     0.0       0.0    2139.9    5731.0       0.0       0.0
 RICE  HRU    301 Rot   1     0.0       0.0    2138.2    5726.6       0.0       0.0
 FRST  HRU    302 Rot   1     0.0   22116.4       0.0   12107.6       0.0       0.0
 FRST  HRU    303 Rot   1     0.0   27668.5       0.0   12144.5       0.0       0.0
 ORCD  HRU    304 Rot   1     0.0   22685.8       0.0    8381.0       0.0       0.0
 ORCD  HRU    305 Rot   1     0.0   22795.8       0.0    8384.5       0.0       0.0
 ORCD  HRU    306 Rot   1     0.0   22663.3       0.0    8382.6       0.0       0.0
 BERM  HRU    307 Rot   1     0.0       0.0   14207.0   20346.7       0.0       0.0
 BERM  HRU    308 Rot   1     0.0       0.0   14701.8   21055.8       0.0       0.0
 BERM  HRU    309 Rot   1     0.0       0.0   11572.8   16568.5       0.0       0.0
 BERM  HRU    310 Rot   1     0.0       0.0   12368.6   17725.2       0.0       0.0
 BERM  HRU    311 Rot   1     0.0       0.0   12321.0   17656.9       0.0       0.0
 RICE  HRU    312 Rot   1     0.0       0.0    2068.3    5549.9       0.0       0.0
 RICE  HRU    313 Rot   1     0.0       0.0    2140.3    5731.3       0.0       0.0
 RICE  HRU    314 Rot   1     0.0       0.0    2137.6    5723.7       0.0       0.0
 FRST  HRU    315 Rot   1     0.0   22119.9       0.0   12107.5       0.0       0.0
 FRST  HRU    316 Rot   1     0.0   27696.3       0.0   12125.5       0.0       0.0
 ORCD  HRU    317 Rot   1     0.0   22687.8       0.0    8381.1       0.0       0.0
 ORCD  HRU    318 Rot   1     0.0   22696.0       0.0    8383.9       0.0       0.0
 FRST  HRU    319 Rot   1     0.0   22525.2       0.0   12061.2       0.0       0.0
 ORCD  HRU    320 Rot   1     0.0   22551.6       0.0    8395.6       0.0       0.0
 ORCD  HRU    321 Rot   1     0.0   22842.0       0.0    8393.3       0.0       0.0
 WWHT  HRU    322 Rot   1     0.0       0.0    2948.9    9536.6       0.0       0.0
 WWHT  HRU    323 Rot   1     0.0       0.0    2933.1    9485.7       0.0       0.0
 WWHT  HRU    324 Rot   1     0.0       0.0    2898.9    9375.1       0.0       0.0
 WWHT  HRU    325 Rot   1     0.0       0.0    2975.7    9623.4       0.0       0.0
 FRST  HRU    326 Rot   1     0.0   22703.1       0.0   12793.3       0.0       0.0
 ORCD  HRU    327 Rot   1     0.0   23101.8       0.0    8755.9       0.0       0.0
 RICE  HRU    328 Rot   1     0.0       0.0    2114.8    5556.9       0.0       0.0
 RICE  HRU    329 Rot   1     0.0       0.0    2135.6    5609.6       0.0       0.0
 RICE  HRU    330 Rot   1     0.0       0.0    2239.0    5875.7       0.0       0.0
 RICE  HRU    331 Rot   1     0.0       0.0    2241.7    5882.9       0.0       0.0
 FRST  HRU    332 Rot   1     0.0   22849.4       0.0   13178.4       0.0       0.0
 FRST  HRU    333 Rot   1     0.0   28364.8       0.0   13260.4       0.0       0.0
 FRST  HRU    334 Rot   1     0.0   22087.7       0.0   13135.1       0.0       0.0
 ORCD  HRU    335 Rot   1     0.0   22886.6       0.0    9142.0       0.0       0.0
 ORCD  HRU    336 Rot   1     0.0   23221.1       0.0    9142.0       0.0       0.0
 BERM  HRU    337 Rot   1     0.0       0.0   12549.9   17985.7       0.0       0.0
 BERM  HRU    338 Rot   1     0.0       0.0   12522.5   17946.3       0.0       0.0
 RICE  HRU    339 Rot   1     0.0       0.0    2104.0    5555.3       0.0       0.0
 RICE  HRU    340 Rot   1     0.0       0.0    2059.4    5526.1       0.0       0.0
 RICE  HRU    341 Rot   1     0.0       0.0    2141.4    5736.8       0.0       0.0
 RICE  HRU    342 Rot   1     0.0       0.0    2139.0    5730.4       0.0       0.0
 FRST  HRU    343 Rot   1     0.0   22088.3       0.0   12105.5       0.0       0.0
 FRST  HRU    344 Rot   1     0.0   27586.8       0.0   12144.5       0.0       0.0
 ORCD  HRU    345 Rot   1     0.0   22664.2       0.0    8380.3       0.0       0.0
 ORCD  HRU    346 Rot   1     0.0   22795.3       0.0    8384.3       0.0       0.0
 ORCD  HRU    347 Rot   1     0.0   22695.3       0.0    8382.2       0.0       0.0
 BERM  HRU    348 Rot   1     0.0       0.0   15256.5   21872.9       0.0       0.0
 BERM  HRU    349 Rot   1     0.0       0.0   15433.5   22126.9       0.0       0.0
 BERM  HRU    350 Rot   1     0.0       0.0   12582.7   18017.3       0.0       0.0
 BERM  HRU    351 Rot   1     0.0       0.0   11532.6   16511.8       0.0       0.0
 BERM  HRU    352 Rot   1     0.0       0.0   12349.8   17698.5       0.0       0.0
 BERM  HRU    353 Rot   1     0.0       0.0   12370.1   17727.6       0.0       0.0
 FRST  HRU    354 Rot   1     0.0   22721.9       0.0   12289.5       0.0       0.0
 FRST  HRU    355 Rot   1     0.0   23292.6       0.0   12296.4       0.0       0.0
 WATR  HRU    356 Rot   1     0.0       0.0       0.0       0.0       0.0       0.0
 WATR  HRU    357 Rot   1     0.0       0.0       0.0       0.0       0.0       0.0
 WATR  HRU    358 Rot   1     0.0       0.0       0.0       0.0       0.0       0.0
 WATR  HRU    359 Rot   1     0.0       0.0       0.0       0.0       0.0       0.0
 RICE  HRU    360 Rot   1     0.0       0.0    2018.4    5383.3       0.0       0.0
 RICE  HRU    361 Rot   1     0.0       0.0    2024.2    5404.3       0.0       0.0
 RICE  HRU    362 Rot   1     0.0       0.0    2119.5    5644.9       0.0       0.0
 RICE  HRU    363 Rot   1     0.0       0.0    2117.2    5638.3       0.0       0.0
 FRST  HRU    364 Rot   1     0.0   27274.3       0.0   11819.9       0.0       0.0
 ORCD  HRU    365 Rot   1     0.0   22103.2       0.0    8172.4       0.0       0.0
 ORCD  HRU    366 Rot   1     0.0   22014.2       0.0    8180.5       0.0       0.0
 SWRN  HRU    367 Rot   1     0.0       0.0    3077.7    4414.3       0.0       0.0
 RICE  HRU    368 Rot   1     0.0       0.0    2062.2    5507.4       0.0       0.0
 RICE  HRU    369 Rot   1     0.0       0.0    2066.2    5520.2       0.0       0.0
 RICE  HRU    370 Rot   1     0.0       0.0    2036.0    5441.8       0.0       0.0
 RICE  HRU    371 Rot   1     0.0       0.0    2027.0    5414.4       0.0       0.0
 RICE  HRU    372 Rot   1     0.0       0.0    2106.2    5633.6       0.0       0.0
 RICE  HRU    373 Rot   1     0.0       0.0    2122.3    5678.8       0.0       0.0
 FRST  HRU    374 Rot   1     0.0   27014.8       0.0   12002.6       0.0       0.0
 ORCD  HRU    375 Rot   1     0.0   22069.2       0.0    8416.1       0.0       0.0
 ORCD  HRU    376 Rot   1     0.0   22014.6       0.0    8414.2       0.0       0.0
 WWHT  HRU    377 Rot   1     0.0       0.0    2825.3    9137.1       0.0       0.0
 WWHT  HRU    378 Rot   1     0.0       0.0    2835.6    9170.2       0.0       0.0
 WWHT  HRU    379 Rot   1     0.0       0.0    2793.9    9035.5       0.0       0.0
 WWHT  HRU    380 Rot   1     0.0       0.0    2803.1    9065.3       0.0       0.0
 FRST  HRU    381 Rot   1     0.0   22374.9       0.0   11970.2       0.0       0.0
 ORCD  HRU    382 Rot   1     0.0   22031.2       0.0    8399.8       0.0       0.0
 ORCD  HRU    383 Rot   1     0.0   22015.4       0.0    8411.2       0.0       0.0
 BERM  HRU    384 Rot   1     0.0       0.0   14927.3   21393.8       0.0       0.0
 BERM  HRU    385 Rot   1     0.0       0.0   14986.0   21477.3       0.0       0.0
 BERM  HRU    386 Rot   1     0.0       0.0   12950.4   18549.1       0.0       0.0
 BERM  HRU    387 Rot   1     0.0       0.0   12869.4   18432.5       0.0       0.0
 RICE  HRU    388 Rot   1     0.0       0.0    2183.6    5845.6       0.0       0.0
 RICE  HRU    389 Rot   1     0.0       0.0    2180.3    5836.4       0.0       0.0
 FRST  HRU    390 Rot   1     0.0   21687.4       0.0   12463.4       0.0       0.0
 ORCD  HRU    391 Rot   1     0.0   23039.4       0.0    8669.4       0.0       0.0
 ORCD  HRU    392 Rot   1     0.0   23079.5       0.0    8671.1       0.0       0.0
 BERM  HRU    393 Rot   1     0.0       0.0   12571.3   18017.6       0.0       0.0
 BERM  HRU    394 Rot   1     0.0       0.0   12541.5   17974.8       0.0       0.0
 RICE  HRU    395 Rot   1     0.0       0.0    2181.3    5754.4       0.0       0.0
 RICE  HRU    396 Rot   1     0.0       0.0    2250.0    5930.0       0.0       0.0
 FRST  HRU    397 Rot   1     0.0   22161.9       0.0   12181.2       0.0       0.0
 ORCD  HRU    398 Rot   1     0.0   22355.0       0.0    8356.5       0.0       0.0
 ORCD  HRU    399 Rot   1     0.0   22424.9       0.0    8358.4       0.0       0.0
 ORCD  HRU    400 Rot   1     0.0   22451.6       0.0    8359.6       0.0       0.0
 BERM  HRU    401 Rot   1     0.0       0.0   15555.1   22290.0       0.0       0.0
 BERM  HRU    402 Rot   1     0.0       0.0   12950.7   18553.6       0.0       0.0
 BERM  HRU    403 Rot   1     0.0       0.0   12561.8   17995.3       0.0       0.0
 BERM  HRU    404 Rot   1     0.0       0.0   12310.2   17646.3       0.0       0.0
 BERM  HRU    405 Rot   1     0.0       0.0   12152.7   17420.2       0.0       0.0
 RICE  HRU    406 Rot   1     0.0       0.0    2136.3    5713.7       0.0       0.0
 RICE  HRU    407 Rot   1     0.0       0.0    2118.8    5669.7       0.0       0.0
 RICE  HRU    408 Rot   1     0.0       0.0    2092.0    5607.6       0.0       0.0
 RICE  HRU    409 Rot   1     0.0       0.0    2071.4    5550.3       0.0       0.0
 RICE  HRU    410 Rot   1     0.0       0.0    2180.5    5835.4       0.0       0.0
 RICE  HRU    411 Rot   1     0.0       0.0    2179.3    5830.8       0.0       0.0
 FRST  HRU    412 Rot   1     0.0   22378.5       0.0   12488.8       0.0       0.0
 FRST  HRU    413 Rot   1     0.0   21731.0       0.0   12464.8       0.0       0.0
 ORCD  HRU    414 Rot   1     0.0   22942.2       0.0    8666.2       0.0       0.0
 ORCD  HRU    415 Rot   1     0.0   23025.5       0.0    8669.0       0.0       0.0
 RICE  HRU    416 Rot   1     0.0       0.0    2173.2    5709.5       0.0       0.0
 RICE  HRU    417 Rot   1     0.0       0.0    2192.8    5761.9       0.0       0.0
 RICE  HRU    418 Rot   1     0.0       0.0    2186.1    5698.4       0.0       0.0
 RICE  HRU    419 Rot   1     0.0       0.0    2194.8    5721.3       0.0       0.0
 RICE  HRU    420 Rot   1     0.0       0.0    2242.7    5886.3       0.0       0.0
 RICE  HRU    421 Rot   1     0.0       0.0    2239.3    5877.3       0.0       0.0
 WWHT  HRU    422 Rot   1     0.0       0.0    2969.0    9602.1       0.0       0.0
 WWHT  HRU    423 Rot   1     0.0       0.0    2999.4    9700.3       0.0       0.0
 FRST  HRU    424 Rot   1     0.0   22914.5       0.0   13184.6       0.0       0.0
 FRST  HRU    425 Rot   1     0.0   28330.6       0.0   13260.2       0.0       0.0
 ORCD  HRU    426 Rot   1     0.0   22973.5       0.0    9124.9       0.0       0.0
 ORCD  HRU    427 Rot   1     0.0   23198.7       0.0    9141.2       0.0       0.0
 BERM  HRU    428 Rot   1     0.0       0.0   14713.7   21091.5       0.0       0.0
 BERM  HRU    429 Rot   1     0.0       0.0   14874.2   21321.5       0.0       0.0
 BERM  HRU    430 Rot   1     0.0       0.0   12553.2   17990.7       0.0       0.0
 BERM  HRU    431 Rot   1     0.0       0.0   12507.0   17924.1       0.0       0.0
 FRST  HRU    432 Rot   1     0.0   23404.7       0.0   12319.5       0.0       0.0
 FRST  HRU    433 Rot   1     0.0   12875.9       0.0    5097.9       0.0       0.0
 ORCD  HRU    434 Rot   1     0.0   23239.5       0.0    8428.2       0.0       0.0
 BERM  HRU    435 Rot   1     0.0       0.0   15482.2   22181.8       0.0       0.0
 BERM  HRU    436 Rot   1     0.0       0.0    1609.1    2294.9       0.0       0.0
 BERM  HRU    437 Rot   1     0.0       0.0    1581.9    2255.6       0.0       0.0
 FRST  HRU    438 Rot   1     0.0   22313.5       0.0   12333.1       0.0       0.0
 FRST  HRU    439 Rot   1     0.0   21688.0       0.0   12294.6       0.0       0.0
 ORCD  HRU    440 Rot   1     0.0   22658.0       0.0    8430.9       0.0       0.0
 ORCD  HRU    441 Rot   1     0.0   22566.7       0.0    8428.6       0.0       0.0
 FRST  HRU    442 Rot   1     0.0   22329.7       0.0   12334.4       0.0       0.0
 FRST  HRU    443 Rot   1     0.0   22990.7       0.0   12335.1       0.0       0.0
 ORCD  HRU    444 Rot   1     0.0   22651.3       0.0    8431.0       0.0       0.0
 ORCD  HRU    445 Rot   1     0.0   22736.3       0.0    8428.7       0.0       0.0
 ORCD  HRU    446 Rot   1     0.0   22574.3       0.0    8428.7       0.0       0.0
 RICE  HRU    447 Rot   1     0.0       0.0    2260.0    5908.1       0.0       0.0
 RICE  HRU    448 Rot   1     0.0       0.0    2257.7    5901.9       0.0       0.0
 RICE  HRU    449 Rot   1     0.0       0.0    2128.1    5689.2       0.0       0.0
 RICE  HRU    450 Rot   1     0.0       0.0    2109.0    5635.1       0.0       0.0
 FRST  HRU    451 Rot   1     0.0   27246.2       0.0   12013.8       0.0       0.0
 ORCD  HRU    452 Rot   1     0.0   22068.9       0.0    8415.9       0.0       0.0
 ORCD  HRU    453 Rot   1     0.0   22150.1       0.0    8415.9       0.0       0.0
 ORCD  HRU    454 Rot   1     0.0   22026.3       0.0    8414.2       0.0       0.0
 RICE  HRU    455 Rot   1     0.0       0.0    2138.6    5719.9       0.0       0.0
 RICE  HRU    456 Rot   1     0.0       0.0    2107.9    5654.5       0.0       0.0
 FRST  HRU    457 Rot   1     0.0   22411.0       0.0   12493.9       0.0       0.0
 FRST  HRU    458 Rot   1     0.0   21735.6       0.0   12464.5       0.0       0.0
 ORCD  HRU    459 Rot   1     0.0   22924.2       0.0    8665.9       0.0       0.0
 ORCD  HRU    460 Rot   1     0.0   23010.4       0.0    8669.2       0.0       0.0
 FRST  HRU    461 Rot   1     0.0   22446.1       0.0   12495.8       0.0       0.0
 FRST  HRU    462 Rot   1     0.0   25442.9       0.0   12516.5       0.0       0.0
 FRST  HRU    463 Rot   1     0.0   21744.0       0.0   12465.1       0.0       0.0
 ORCD  HRU    464 Rot   1     0.0   22944.9       0.0    8666.1       0.0       0.0
 ORCD  HRU    465 Rot   1     0.0   22998.8       0.0    8669.5       0.0       0.0
 BERM  HRU    466 Rot   1     0.0       0.0   14640.3   20980.9       0.0       0.0
 BERM  HRU    467 Rot   1     0.0       0.0   14803.4   21214.3       0.0       0.0
 BERM  HRU    468 Rot   1     0.0       0.0   12980.2   18597.4       0.0       0.0
 BERM  HRU    469 Rot   1     0.0       0.0   11687.0   16743.1       0.0       0.0
 RICE  HRU    470 Rot   1     0.0       0.0    2215.3    5812.8       0.0       0.0
 RICE  HRU    471 Rot   1     0.0       0.0    2212.3    5806.1       0.0       0.0
 RICE  HRU    472 Rot   1     0.0       0.0    2161.9    5664.9       0.0       0.0
 RICE  HRU    473 Rot   1     0.0       0.0    2155.4    5647.3       0.0       0.0
 RICE  HRU    474 Rot   1     0.0       0.0    2285.4    5981.7       0.0       0.0
 RICE  HRU    475 Rot   1     0.0       0.0    2279.0    5964.3       0.0       0.0
 WWHT  HRU    476 Rot   1     0.0       0.0    2912.4    9418.6       0.0       0.0
 WWHT  HRU    477 Rot   1     0.0       0.0    2932.7    9484.5       0.0       0.0
 WWHT  HRU    478 Rot   1     0.0       0.0    2911.6    9416.2       0.0       0.0
 WWHT  HRU    479 Rot   1     0.0       0.0    2924.1    9456.6       0.0       0.0
 WWHT  HRU    480 Rot   1     0.0       0.0    2994.5    9684.2       0.0       0.0
 FRST  HRU    481 Rot   1     0.0   22519.2       0.0   12247.2       0.0       0.0
 FRST  HRU    482 Rot   1     0.0   21953.2       0.0   12234.6       0.0       0.0
 ORCD  HRU    483 Rot   1     0.0   22980.5       0.0    8443.3       0.0       0.0
 ORCD  HRU    484 Rot   1     0.0   23229.4       0.0    8443.2       0.0       0.0
 BERM  HRU    485 Rot   1     0.0       0.0   10644.7   15249.7       0.0       0.0
 BERM  HRU    486 Rot   1     0.0       0.0   11829.9   16949.6       0.0       0.0
 BERM  HRU    487 Rot   1     0.0       0.0   11705.6   16770.4       0.0       0.0
 BERM  HRU    488 Rot   1     0.0       0.0   11681.1   16734.7       0.0       0.0
 RICE  HRU    489 Rot   1     0.0       0.0    2118.9    5667.7       0.0       0.0
 RICE  HRU    490 Rot   1     0.0       0.0    2132.1    5701.8       0.0       0.0
 RICE  HRU    491 Rot   1     0.0       0.0    2105.4    5647.3       0.0       0.0
 RICE  HRU    492 Rot   1     0.0       0.0    2178.8    5827.0       0.0       0.0
 RICE  HRU    493 Rot   1     0.0       0.0    2181.3    5833.7       0.0       0.0
 FRST  HRU    494 Rot   1     0.0   22412.6       0.0   12493.7       0.0       0.0
 ORCD  HRU    495 Rot   1     0.0   22942.7       0.0    8665.9       0.0       0.0
 ORCD  HRU    496 Rot   1     0.0   22978.7       0.0    8669.3       0.0       0.0
 BERM  HRU    497 Rot   1     0.0       0.0   14799.6   21208.6       0.0       0.0
 BERM  HRU    498 Rot   1     0.0       0.0   13156.2   18852.1       0.0       0.0
 BERM  HRU    499 Rot   1     0.0       0.0   12943.8   18540.2       0.0       0.0
 BERM  HRU    500 Rot   1     0.0       0.0   12562.0   18003.9       0.0       0.0
 BERM  HRU    501 Rot   1     0.0       0.0   12575.5   18023.2       0.0       0.0
 RICE  HRU    502 Rot   1     0.0       0.0    2155.6    5647.8       0.0       0.0
 RICE  HRU    503 Rot   1     0.0       0.0    2279.0    5964.3       0.0       0.0
 FRST  HRU    504 Rot   1     0.0   22542.5       0.0   12252.6       0.0       0.0
 FRST  HRU    505 Rot   1     0.0   21524.7       0.0   12140.4       0.0       0.0
 FRST  HRU    506 Rot   1     0.0   21740.1       0.0   12196.1       0.0       0.0
 BERM  HRU    507 Rot   1     0.0       0.0   11706.1   16771.0       0.0       0.0
 BERM  HRU    508 Rot   1     0.0       0.0   11263.1   16140.4       0.0       0.0
 RICE  HRU    509 Rot   1     0.0       0.0    2256.3    5928.8       0.0       0.0
 RICE  HRU    510 Rot   1     0.0       0.0    2254.2    5923.2       0.0       0.0
 WWHT  HRU    511 Rot   1     0.0       0.0    2962.3    9579.9       0.0       0.0
 WWHT  HRU    512 Rot   1     0.0       0.0    2962.5    9580.6       0.0       0.0
 FRST  HRU    513 Rot   1     0.0   22648.8       0.0   12783.6       0.0       0.0
 FRST  HRU    514 Rot   1     0.0   23209.1       0.0   12783.8       0.0       0.0
 ORCD  HRU    515 Rot   1     0.0   23108.2       0.0    8756.2       0.0       0.0
 ORCD  HRU    516 Rot   1     0.0   23148.9       0.0    8766.7       0.0       0.0
 BERM  HRU    517 Rot   1     0.0       0.0   16038.1   22991.6       0.0       0.0
 BERM  HRU    518 Rot   1     0.0       0.0   15914.7   22814.5       0.0       0.0
 BERM  HRU    519 Rot   1     0.0       0.0   11186.9   16034.2       0.0       0.0
 BERM  HRU    520 Rot   1     0.0       0.0   11155.6   15989.3       0.0       0.0
 RICE  HRU    521 Rot   1     0.0       0.0    2091.6    5554.8       0.0       0.0
 RICE  HRU    522 Rot   1     0.0       0.0    2101.1    5577.2       0.0       0.0
 RICE  HRU    523 Rot   1     0.0       0.0    2213.2    5871.1       0.0       0.0
 RICE  HRU    524 Rot   1     0.0       0.0    2220.6    5891.1       0.0       0.0
 WWHT  HRU    525 Rot   1     0.0       0.0    2915.1    9427.6       0.0       0.0
 WWHT  HRU    526 Rot   1     0.0       0.0    2952.9    9549.9       0.0       0.0
 WWHT  HRU    527 Rot   1     0.0       0.0    2954.4    9554.7       0.0       0.0
 FRST  HRU    528 Rot   1     0.0   22584.8       0.0   12437.6       0.0       0.0
 ORCD  HRU    529 Rot   1     0.0   22837.1       0.0    8543.5       0.0       0.0
 BERM  HRU    530 Rot   1     0.0       0.0   11629.6   16664.1       0.0       0.0
 BERM  HRU    531 Rot   1     0.0       0.0   13933.0   19964.5       0.0       0.0
 BERM  HRU    532 Rot   1     0.0       0.0   11218.1   16078.6       0.0       0.0
 BERM  HRU    533 Rot   1     0.0       0.0   11182.3   16027.1       0.0       0.0
 RICE  HRU    534 Rot   1     0.0       0.0    2189.2    5792.5       0.0       0.0
 RICE  HRU    535 Rot   1     0.0       0.0    2169.0    5736.0       0.0       0.0
 FRST  HRU    536 Rot   1     0.0   22292.2       0.0   12327.6       0.0       0.0
 ORCD  HRU    537 Rot   1     0.0   22740.0       0.0    8430.3       0.0       0.0
 ORCD  HRU    538 Rot   1     0.0   22572.4       0.0    8429.1       0.0       0.0
 RICE  HRU    539 Rot   1     0.0       0.0    2187.9    5791.0       0.0       0.0
 RICE  HRU    540 Rot   1     0.0       0.0    2139.1    5652.4       0.0       0.0
 RICE  HRU    541 Rot   1     0.0       0.0    2149.3    5683.8       0.0       0.0
 FRST  HRU    542 Rot   1     0.0   22263.0       0.0   12323.4       0.0       0.0
 FRST  HRU    543 Rot   1     0.0   27796.7       0.0   12358.5       0.0       0.0
 FRST  HRU    544 Rot   1     0.0   21636.5       0.0   12294.2       0.0       0.0
 ORCD  HRU    545 Rot   1     0.0   22698.9       0.0    8430.4       0.0       0.0
 ORCD  HRU    546 Rot   1     0.0   22594.5       0.0    8429.3       0.0       0.0
 BERM  HRU    547 Rot   1     0.0       0.0   14356.0   20573.4       0.0       0.0
 BERM  HRU    548 Rot   1     0.0       0.0   15287.8   21919.1       0.0       0.0
 BERM  HRU    549 Rot   1     0.0       0.0   11653.5   16693.8       0.0       0.0
 BERM  HRU    550 Rot   1     0.0       0.0   12934.2   18529.7       0.0       0.0
 FRST  HRU    551 Rot   1     0.0   22382.9       0.0   12342.0       0.0       0.0
 FRST  HRU    552 Rot   1     0.0   27809.8       0.0   12358.5       0.0       0.0
 FRST  HRU    553 Rot   1     0.0   22926.2       0.0   12330.5       0.0       0.0
 ORCD  HRU    554 Rot   1     0.0   22818.5       0.0    8435.9       0.0       0.0
 ORCD  HRU    555 Rot   1     0.0   22713.6       0.0    8428.8       0.0       0.0
 ORCD  HRU    556 Rot   1     0.0   22549.0       0.0    8429.0       0.0       0.0
 BERM  HRU    557 Rot   1     0.0       0.0   14299.6   20492.2       0.0       0.0
 BERM  HRU    558 Rot   1     0.0       0.0   15046.7   21568.9       0.0       0.0
 RICE  HRU    559 Rot   1     0.0       0.0    2241.5    5856.3       0.0       0.0
 RICE  HRU    560 Rot   1     0.0       0.0    2152.3    5633.5       0.0       0.0
 RICE  HRU    561 Rot   1     0.0       0.0    2140.3    5600.4       0.0       0.0
 RICE  HRU    562 Rot   1     0.0       0.0    2276.0    5948.2       0.0       0.0
 WWHT  HRU    563 Rot   1     0.0       0.0    2975.1    9621.5       0.0       0.0
 FRST  HRU    564 Rot   1     0.0   23269.3       0.0   12401.4       0.0       0.0
 FRST  HRU    565 Rot   1     0.0   22064.9       0.0   12429.9       0.0       0.0
 ORCD  HRU    566 Rot   1     0.0   23299.2       0.0    8625.4       0.0       0.0
 ORCD  HRU    567 Rot   1     0.0   23280.4       0.0    8627.2       0.0       0.0
 BERM  HRU    568 Rot   1     0.0       0.0   11732.0   16811.4       0.0       0.0
 BERM  HRU    569 Rot   1     0.0       0.0   14073.4   20167.6       0.0       0.0
 BERM  HRU    570 Rot   1     0.0       0.0   13795.8   19771.9       0.0       0.0
 SWRN  HRU    571 Rot   1     0.0       0.0    2036.1    2921.0       0.0       0.0
 SWRN  HRU    572 Rot   1     0.0       0.0    1978.1    2837.8       0.0       0.0
 SWRN  HRU    573 Rot   1     0.0       0.0    1728.1    2479.0       0.0       0.0
 SWRN  HRU    574 Rot   1     0.0       0.0    1688.1    2421.7       0.0       0.0
 SWRN  HRU    575 Rot   1     0.0       0.0    1790.6    2568.5       0.0       0.0
 SWRN  HRU    576 Rot   1     0.0       0.0    1776.6    2548.5       0.0       0.0
 RICE  HRU    577 Rot   1     0.0       0.0    2228.3    5845.2       0.0       0.0
 RICE  HRU    578 Rot   1     0.0       0.0    2238.9    5876.5       0.0       0.0
 RICE  HRU    579 Rot   1     0.0       0.0    2148.0    5645.4       0.0       0.0
 RICE  HRU    580 Rot   1     0.0       0.0    2147.8    5643.6       0.0       0.0
 RICE  HRU    581 Rot   1     0.0       0.0    2257.0    5931.4       0.0       0.0
 RICE  HRU    582 Rot   1     0.0       0.0    2256.4    5929.7       0.0       0.0
 FRST  HRU    583 Rot   1     0.0   23168.2       0.0   12777.7       0.0       0.0
 FRST  HRU    584 Rot   1     0.0   21794.4       0.0   12771.3       0.0       0.0
 ORCD  HRU    585 Rot   1     0.0   23203.1       0.0    8765.1       0.0       0.0
 ORCD  HRU    586 Rot   1     0.0   23163.8       0.0    8742.1       0.0       0.0
 BERM  HRU    587 Rot   1     0.0       0.0   13831.1   19830.4       0.0       0.0
 BERM  HRU    588 Rot   1     0.0       0.0   13501.2   19357.4       0.0       0.0
 BERM  HRU    589 Rot   1     0.0       0.0   16039.8   22994.1       0.0       0.0
 BERM  HRU    590 Rot   1     0.0       0.0   15871.0   22751.7       0.0       0.0
 BERM  HRU    591 Rot   1     0.0       0.0   13837.0   19829.6       0.0       0.0
 BERM  HRU    592 Rot   1     0.0       0.0   13909.4   19930.5       0.0       0.0
 BERM  HRU    593 Rot   1     0.0       0.0   11147.5   15977.8       0.0       0.0
 BERM  HRU    594 Rot   1     0.0       0.0   11185.7   16032.6       0.0       0.0
 RICE  HRU    595 Rot   1     0.0       0.0    2155.5    5701.9       0.0       0.0
 RICE  HRU    596 Rot   1     0.0       0.0    2155.2    5701.0       0.0       0.0
 RICE  HRU    597 Rot   1     0.0       0.0    2219.4    5852.2       0.0       0.0
 RICE  HRU    598 Rot   1     0.0       0.0    2220.4    5859.1       0.0       0.0
 FRST  HRU    599 Rot   1     0.0   22358.5       0.0   11911.7       0.0       0.0
 FRST  HRU    600 Rot   1     0.0   21525.5       0.0   11821.0       0.0       0.0
 ORCD  HRU    601 Rot   1     0.0   22865.8       0.0    8404.1       0.0       0.0
 ORCD  HRU    602 Rot   1     0.0   22938.6       0.0    8397.7       0.0       0.0
 BERM  HRU    603 Rot   1     0.0       0.0   13302.3   19060.4       0.0       0.0
 BERM  HRU    604 Rot   1     0.0       0.0   10792.4   15467.8       0.0       0.0
 BERM  HRU    605 Rot   1     0.0       0.0   13794.8   19766.7       0.0       0.0
 BERM  HRU    606 Rot   1     0.0       0.0   14105.4   20212.0       0.0       0.0
 BERM  HRU    607 Rot   1     0.0       0.0   11223.5   16085.3       0.0       0.0
 BERM  HRU    608 Rot   1     0.0       0.0   11253.8   16129.2       0.0       0.0
 RICE  HRU    609 Rot   1     0.0       0.0    2155.3    5697.5       0.0       0.0
 RICE  HRU    610 Rot   1     0.0       0.0    2146.5    5670.8       0.0       0.0
 FRST  HRU    611 Rot   1     0.0   22301.4       0.0   11911.9       0.0       0.0
 ORCD  HRU    612 Rot   1     0.0   22901.2       0.0    8404.0       0.0       0.0
 ORCD  HRU    613 Rot   1     0.0   22980.0       0.0    8402.7       0.0       0.0
 BERM  HRU    614 Rot   1     0.0       0.0   11697.1   16762.2       0.0       0.0
 BERM  HRU    615 Rot   1     0.0       0.0   13064.3   18721.7       0.0       0.0
 BERM  HRU    616 Rot   1     0.0       0.0   11139.9   15968.8       0.0       0.0
 BERM  HRU    617 Rot   1     0.0       0.0   11181.0   16027.6       0.0       0.0
 BERM  HRU    618 Rot   1     0.0       0.0   11152.0   15986.2       0.0       0.0
 WATR  HRU    619 Rot   1     0.0       0.0       0.0       0.0       0.0       0.0
 RICE  HRU    620 Rot   1     0.0       0.0    2241.8    5857.1       0.0       0.0
 RICE  HRU    621 Rot   1     0.0       0.0    2242.5    5859.0       0.0       0.0
 RICE  HRU    622 Rot   1     0.0       0.0    2142.2    5607.3       0.0       0.0
 RICE  HRU    623 Rot   1     0.0       0.0    2144.6    5611.9       0.0       0.0
 RICE  HRU    624 Rot   1     0.0       0.0    2279.7    5958.2       0.0       0.0
 RICE  HRU    625 Rot   1     0.0       0.0    2276.4    5949.3       0.0       0.0
 WWHT  HRU    626 Rot   1     0.0       0.0    2975.3    9622.0       0.0       0.0
 FRST  HRU    627 Rot   1     0.0   22516.6       0.0   12371.7       0.0       0.0
[...]
   808  92 FRSTQSH     .101E+01   58.00  249.80    3.52    0.00    0.00    0.00    0.20 1563.93  300.19  483.72  468.21    0.28    1.86    0.08   22.16    0.00
   809  92 ORCDQSH     .993E+00   77.00  249.80    3.47    0.00   50.06    0.00    0.20 1563.93  515.18  197.38  605.08    0.98    3.87    0.16   21.82    0.00
   810  92 BERMQSH     .125E+01   91.18  249.80    0.07    0.00  236.74    2.37    0.20 1563.93  893.81    0.00  639.98    0.14    6.84    0.52   23.01   16.05
   811  92 BERMQSH     .993E+00   91.18  249.80    2.68    0.00  237.10    2.35    0.20 1563.93  877.06   33.39  634.07    8.32    7.79    2.62   22.75   15.87
   812  92 BERMZSDT    .921E+00   95.52  204.30    0.07    0.00  189.83    4.27    0.20 1563.93  967.69    0.01  607.00    0.09    6.53    0.58   19.33   13.48
   813  92 WATRQSH     .416E+00   92.00  249.80    0.07    0.00    0.00    0.00    0.20 1563.93    0.00    0.00 1211.17    0.00    0.00    0.00    0.00    0.00
   814  92 WATRZSDT    .798E-01   92.00  204.30    1.44    0.00    0.00    0.00    0.20 1563.93    0.00    0.00 1211.17    0.00    0.00    0.00    0.00    0.00
   815  92 WATRZSDT    .483E-01   92.00  204.30    0.20    0.00    0.00    0.00    0.20 1563.93    0.00    0.00 1211.17    0.00    0.00    0.00    0.00    0.00
   816  93 RICECST     .293E+00   63.00  139.20    0.07    0.00  176.30    0.00    0.20 1578.14  289.15  316.63  609.68    0.08    0.90    0.03    5.64    2.15
   817  93 RICECST     .209E+00   63.00  139.20    3.06    0.00  104.56    0.00    0.20 1578.14  279.38  455.16  600.83   17.18   10.52    3.93    5.59    2.13
   818  93 RICEZSDT    .400E+00   74.00  204.30    2.41    0.00  193.43    0.00    0.20 1578.14  416.26  177.91  705.57    2.30    4.14    1.09    5.89    2.25
   819  93 RICEZSDT    .255E+00   74.00  204.30    0.07    0.00  198.78    0.00    0.20 1578.14  421.78  164.85  706.28    0.02    1.90    0.01    5.89    2.25
   820  93 FRSTCST     .192E+01   45.00  139.20    3.90    0.00    0.00    0.00    0.20 1578.14  116.01  796.73  446.55    0.13    2.81    0.04   21.48    0.00
   821  93 ORCDCST     .117E+00   66.00  139.20    3.86    0.00  101.42    5.14    0.20 1578.14  333.66  444.25  570.01    0.64   13.17    0.10   21.50    0.00
   822  93 ORCDCST     .562E-01   66.00  139.20    0.07    0.00  106.55    5.42    0.20 1578.14  341.00  303.29  576.72    0.00    0.85    0.00   21.50    0.00
   823  93 ORCDZSDT    .654E+00   83.00  204.30    2.96    0.00   68.25    5.06    0.20 1578.14  612.09  109.85  631.20    0.12    4.00    0.03   21.70    0.00
   824  93 BERMCST     .283E+00   83.12  139.20    0.07    0.00  215.12    2.49    0.20 1578.14  815.16   10.64  616.80    0.15    4.60    1.10   17.36   12.12
   825  93 BERMCST     .350E+00   83.12  139.20    2.66    0.00  196.64    1.79    0.20 1578.14  793.63  116.36  603.27    6.47    9.47    2.53   16.34   11.41
   826  93 BERMZSDT    .412E+00   95.52  204.30    2.36    0.00  166.86    0.00    0.20 1578.14  980.69    8.59  602.22    0.93    6.63    1.25   16.11   11.25
   827  93 BERMZSDT    .125E+00   95.52  204.30    0.08    0.00  166.77    0.00    0.20 1578.14  987.69    0.01  603.47    0.09    6.48    1.66   16.15   11.28
   828  93 WATRCST     .498E+00   92.00  139.20    0.07    0.00    0.00    0.00    0.20 1578.14    0.00    0.00 1209.83    0.00    0.00    0.00    0.00    0.00
   829  94 RICECST     .730E+00   63.00  139.20    2.39    0.00  138.40    0.00    0.20 1563.93  247.11  393.39  616.82   12.62    7.36    3.38    5.77    2.21
   830  94 RICECST     .336E+00   63.00  139.20    0.08    0.00  171.33    0.00    0.20 1563.93  251.89  324.51  620.81    0.16    1.02    0.08    5.75    2.20
   831  94 RICEZSDT    .671E+00   74.00  204.30    1.13    0.00  199.49    0.00    0.20 1563.93  388.47  172.94  713.22    0.88    2.22    0.47    5.95    2.28
   832  94 RICEZSDT    .191E+01   74.00  204.30    0.07    0.00  189.91    0.00    0.20 1563.93  389.62  173.04  713.46    0.02    1.83    0.01    5.93    2.27
   833  94 FRSTCST     .709E+01   45.00  139.20    3.60    0.00    0.00    0.00    0.20 1563.93   91.95  790.92  452.19    0.10    2.66    0.03   21.56    0.00
   834  94 FRSTQSH     .979E+01   58.00  249.80    4.32    0.00    0.00    0.00    0.20 1563.93  295.10  495.89  468.57    0.41    1.96    0.11   22.22    0.00
   835  94 ORCDQSH     .218E+01   77.00  249.80    3.52    0.00   50.06    0.00    0.20 1563.93  514.58  196.76  606.15    1.16    3.89    0.19   21.82    0.00
   836  94 BERMSSDT    .396E+01   91.18  184.80    0.07    0.00  166.21    0.00    0.20 1563.93  876.15    0.03  650.34    0.09    5.09    0.27   16.74   11.68
   837  94 BERMSSDT    .348E+01   91.18  184.80    2.69    0.00  166.29    0.00    0.20 1563.93  873.55    6.26  649.37    0.85    5.14    0.60   16.70   11.65
   838  94 BERMZSDT    .204E+01   95.52  204.30    1.65    0.00  189.83    4.27    0.20 1563.93  962.75    4.52  607.77    0.76    6.69    0.71   19.27   13.45
   839  94 BERMZSDT    .432E+01   95.52  204.30    0.07    0.00  190.27    4.36    0.20 1563.93  966.76    0.01  608.04    0.10    6.39    0.26   19.43   13.56
   840  95 RICEZSDT    .268E+01   73.00  204.30    2.48    0.00  197.56    0.00    0.20 1634.49  355.45  247.45  712.87    1.90    1.88    0.88    5.93    2.24
   841  95 RICEZSDT    .237E+01   73.00  204.30    0.07    0.00  197.56    0.00    0.20 1634.49  357.38  244.86  713.25    0.02    1.12    0.01    5.92    2.24
   842  95 FRSTCGT     .876E+01   44.00  104.00    9.34    0.00    0.00    0.00    0.20 1634.49   77.83 1018.36  437.59    0.25    4.50    0.79   24.67    0.00
   843  95 FRSTCST     .758E+01   44.00  139.20    3.92    0.00    0.00    0.00    0.20 1634.49   81.87  859.18  462.54    0.10    2.82    0.03   21.26    0.00
   844  95 ORCDQSH     .422E+01   76.00  249.80    2.99    0.00   67.87    2.53    0.20 1634.49  504.20  278.19  564.44    1.14    4.37    0.18   21.71    0.00
   845  95 ORCDSSDT    .446E+01   76.00  184.80    3.37    0.00   86.08    5.25    0.20 1634.49  453.13  350.87  565.87    0.11    8.63    0.02   21.58    0.00
   846  95 ORCDZSDT    .102E+01   82.00  204.30    0.07    0.00   87.53    5.26    0.20 1634.49  571.74  171.93  600.07    0.00    1.72    0.00   21.67    0.00
   847  95 ORCDZSDT    .309E+01   82.00  204.30    2.89    0.00   86.32    5.25    0.20 1634.49  564.43  197.29  599.67    0.13    4.56    0.03   21.68    0.00
   848  95 BERMZSDT    .319E+01   94.90  204.30    2.12    0.00  178.27    2.46    0.20 1634.49 1020.31    6.69  608.52    1.01    7.66    0.76   17.88   12.48
   849  95 BERMZSDT    .314E+01   94.90  204.30    0.07    0.00  178.08    2.46    0.20 1634.49 1025.13    0.01  609.42    0.10    7.26    0.33   17.93   12.51
   850  96 RICELGH     .852E+01   63.00  423.60    3.83    0.00  116.49    0.00    0.20 1632.96  224.20  442.35  656.79   24.82    8.25   68.54    5.70    2.18
   851  96 RICELGH     .279E+01   63.00  423.60    0.07    0.00  134.33    0.00    0.20 1632.96  255.19  342.99  659.95    0.17    0.75    1.88    5.69    2.17
   852  96 RICESSDT    .854E+01   71.00  184.80    0.08    0.00  203.24    0.00    0.20 1632.96  412.89  220.21  681.10    0.05    1.44    0.02    5.54    2.10
   853  96 RICESSDT    .129E+02   71.00  184.80    2.99    0.00  185.97    0.00    0.20 1632.96  388.92  277.64  678.19    4.06    7.72    1.55    5.62    2.13
   854  96 FRSTLGH     .106E+03   45.00  423.60    6.34    0.00    0.00    0.00    0.20 1632.96  126.54  744.83  460.66    0.27    3.27    2.96   26.45    0.00
   855  96 ORCDCST     .512E+01   66.00  139.20    3.48    0.00   52.30    5.03    0.20 1632.96  282.26  591.60  587.55    0.67   11.71    0.12   21.41    0.00
   856  96 ORCDSSDT    .916E+01   77.00  184.80    3.48    0.00   69.61    5.19    0.20 1632.96  480.74  293.75  617.62    0.12    7.11    0.02   21.47    0.00
   857  96 BERMSSDT    .808E+01   91.18  184.80    0.08    0.00  211.48    4.74    0.20 1632.96  910.74    0.05  669.01    0.10    5.96    0.19   20.21   14.11
   858  96 BERMSSDT    .105E+02   91.18  184.80    2.63    0.00  208.98    4.37    0.20 1632.96  897.60   33.97  664.70    1.01    7.74    0.54   19.81   13.83
   859  97 RICEQSH     .149E+01   70.00  249.80    3.25    0.00  153.05    0.00    0.20 2003.69  565.98  434.00  671.16   40.65    8.32    6.86    5.67    2.09
   860  97 RICEQSH     .394E+00   70.00  249.80    0.08    0.00  143.48    0.00    0.20 2003.69  591.97  362.49  674.01    0.40    2.60    0.20    5.60    2.06
   861  97 RICESSDT    .517E+00   70.00  184.80    0.07    0.00  241.57    0.00    0.20 2003.69  559.95  378.14  684.38    0.03    2.23    0.02    5.53    2.04
   862  97 RICESSDT    .154E+01   70.00  184.80    3.80    0.00  217.42    0.00    0.20 2003.69  529.71  455.22  681.88    4.71   11.30    1.94    5.55    2.04
   863  97 RICEZSDT    .173E+01   73.00  204.30    0.07    0.00  233.40    0.00    0.20 2003.69  560.67  354.37  717.58    0.04    2.29    0.02    5.73    2.11
   864  97 RICEZSDT    .215E+01   73.00  204.30    2.02    0.00  231.32    0.00    0.20 2003.69  553.78  369.30  717.16    2.65    5.29    1.33    5.75    2.11
   865  97 FRSTQSH     .353E+02   57.00  249.80    5.03    0.00    0.00    0.00    0.20 2003.69  410.86  754.81  486.05    0.86    2.79    0.21   21.45    0.00
   866  97 ORCDSSDT    .821E+01   76.00  184.80    3.94    0.00   88.65    5.23    0.20 2003.69  667.65  463.68  580.49    0.25   10.05    0.04   21.05    0.00
   867  98 RICESSDT    .136E+01   71.00  184.80    0.08    0.00  236.30    0.00    0.20 2204.69  807.12  355.78  670.04    0.07    3.57    0.03    5.35    2.00
   868  98 RICESSDT    .482E+01   71.00  184.80    3.06    0.00  210.21    0.00    0.20 2204.69  773.64  424.81  667.44    6.68   10.74    2.31    5.43    2.03
   869  98 RICEZSDT    .467E+01   74.00  204.30    2.68    0.00  225.40    0.00    0.20 2204.69  781.92  363.63  707.56    5.84    7.49    2.27    5.66    2.12
   870  98 RICEZSDT    .371E+01   74.00  204.30    0.07    0.00  228.55    0.00    0.20 2204.69  796.19  337.43  708.47    0.06    3.35    0.03    5.65    2.11
   871  98 FRSTCST     .441E+02   45.00  139.20    4.32    0.00    0.00    0.00    0.20 2204.69  232.38 1234.99  464.75    0.42    4.28    0.10   20.78    0.00
   872  98 FRSTGLH     .530E+02   64.00  222.90    7.03    0.00    0.00    0.00    0.20 2204.69  695.49  732.65  490.99    3.16    5.12    0.52   21.05    0.00
   873  98 ORCDCST     .869E+01   66.00  139.20    2.97    0.00   86.95    5.21    0.20 2204.69  573.33  804.38  585.28    1.51   18.02    0.23   20.98    0.00
   874  98 ORCDGLH     .928E+01   83.00  222.90    4.08    0.00   50.60    0.00    0.20 2204.69 1074.70  294.13  622.78    4.74   12.27    0.59   21.11    0.00
   875  98 ORCDSSDT    .109E+02   77.00  184.80    3.73    0.00  104.40    5.26    0.20 2204.69  918.09  360.73  611.42    0.34    7.54    0.06   21.00    0.00
   876  98 BERMCST     .221E+01   83.12  139.20    2.68    0.00  216.42    0.00    0.20 2204.69 1248.15  168.48  641.71   12.32   12.98    2.85   15.30   10.67
   877  98 BERMCST     .146E+01   83.12  139.20    0.07    0.00  205.79    0.00    0.20 2204.69 1264.83   70.22  649.72    0.24    5.50    0.66   15.45   10.78
   878  98 BERMZSDT    .414E+01   95.52  204.30    3.05    0.00  189.92    4.25    0.20 2204.69 1549.62   11.53  649.28    2.07    9.55    1.20   19.08   13.31
   879  98 BERMZSDT    .240E+01   95.52  204.30    0.07    0.00  179.12    4.42    0.20 2204.69 1557.17    0.01  651.40    0.14    8.59    0.47   19.24   13.42
   880  99 FRSTGLH     .359E+02   63.00  222.90    5.92    0.00    0.00    0.00    0.20 2003.69  475.95  741.72  496.67    1.62    4.12    0.32   21.08    0.00
   881  99 FRSTQSH     .289E+02   57.00  249.80    7.52    0.00    0.00    0.00    0.20 2003.69  394.73  795.74  485.83    1.36    3.10    0.32   21.55    0.00
   882  99 ORCDGLH     .933E+01   82.00  222.90    3.71    0.00   51.36    0.00    0.20 2003.69  851.37  333.32  588.71    3.64   11.40    0.45   21.13    0.00
   883  99 ORCDHHR     .108E+02   76.00  189.85    4.23    0.00   15.30    0.00    0.20 2003.69  639.16  467.70  594.07    2.70    6.13   22.06   21.14    0.00
   884  99 ORCDSSDT    .912E+01   76.00  184.80    4.14    0.00   88.59    5.23    0.20 2003.69  666.37  466.36  580.99    0.27   10.25    0.05   21.06    0.00
   885  99 BERMZSDT    .419E+01   94.90  204.30    3.02    0.00  192.74    4.65    0.20 2003.69 1353.76   13.50  627.69    2.03    9.16    1.16   19.58   13.66
   886  99 BERMZSDT    .311E+01   94.90  204.30    0.07    0.00  192.92    6.43    0.20 2003.69 1360.95    0.01  629.15    0.13    8.66    0.39   20.58   14.36



                AVE MONTHLY BASIN VALUES
                   SNOW                      WATER               SED
  MON     RAIN     FALL   SURF Q    LAT Q    YIELD       ET    YIELD      PET
          (MM)     (MM)     (MM)     (MM)     (MM)     (MM)   (T/HA)     (MM)
    1    48.19     0.00     2.94     9.19    14.19    16.81     0.34    28.59
    2    64.91     0.00     4.57    16.03    22.10    22.16     0.07    31.83
    3   118.93     0.00    12.02    27.22    42.57    36.23     0.48    45.43
    4   149.09     0.00    21.91    40.61    69.91    49.27     0.15    56.56
    5   213.64     0.00    43.71    45.31   100.38    65.20     0.25    74.52
    6   267.58     0.00    62.19    68.37   151.46    65.18     0.19    77.17
    7   200.20     0.00    53.11    45.75   118.58    79.38     0.13   126.90
    8   316.90     0.00    93.44    67.02   174.77    73.40     0.22   113.65
    9   177.23     0.00    46.25    51.91   119.36    54.59     0.12    87.18
   10    59.64     0.00    15.67    18.20    48.63    35.57     0.06    69.19
   11    33.45     0.00     1.72     7.93    13.83    22.17     0.01    43.45
   12    37.18     0.00     2.95     8.94    13.48    16.38     0.01    31.68

     AVE ANNUAL BASIN STRESS DAYS
               WATER STRESS DAYS =     1.63
               TEMPERATURE STRESS DAYS =    44.14
               NITROGEN STRESS DAYS =    18.86
               PHOSPHORUS STRESS DAYS =    11.33
1
    SWAT Jun 01 2011    VER 2009/Rev. 481                                           

    General Input/Output section (file.cio):                                        
    2013/12/18 0:00:00 ARCGIS-SWAT interface AV                                     
                                                                                    
         AVE ANNUAL BASIN VALUES

              PRECIP =   1685.2 MM
              SNOW FALL =    0.00 MM
              SNOW MELT =     0.00 MM
              SUBLIMATION =     0.00 MM
              SURFACE RUNOFF Q =   360.35 MM
              LATERAL SOIL Q =  406.05 MM
              TILE Q =     0.00 MM
              GROUNDWATER (SHAL AQ) Q =   125.16 MM
              REVAP (SHAL AQ => SOIL/PLANTS) =  140.87 MM
              DEEP AQ RECHARGE =   115.20 MM
              TOTAL AQ RECHARGE =  383.99 MM
              TOTAL WATER YLD =   888.64 MM
              PERCOLATION OUT OF SOIL =  381.99 MM
              ET =    535.7 MM
              PET =    785.3MM
              TRANSMISSION LOSSES =     2.92 MM
              SEPTIC INFLOW =       0.00 MM
              TOTAL SEDIMENT LOADING =     2.027 T/HA
              POND BUDGET
                   EVAPORATION =    0.000 MM
                   SEEPAGE =    0.000 MM
                   RAINFALL ON POOL =   0.000 MM
                   INFLOW
                        WATER =    0.000 MM
                        SEDIMENT =    0.000 T/HA
                   OUTFLOW
                        WATER =    0.000 MM
                        SEDIMENT =    0.000 T/HA
              RESERVOIR BUDGET
                   EVAPORATION =    0.816 MM
                   SEEPAGE =    0.000 MM
                   RAINFALL ON RESERVOIR =    2.189 MM
                   INFLOW
                        WATER =  255.884 MM
                        SEDIMENT =    0.319 T/HA
                   OUTFLOW
                        WATER =  245.577 MM
                        SEDIMENT =    0.004 T/HA
              YIELD LOSS FROM PONDS
                   WATER =   0.000 MM
                   SEDIMENT =   0.000 T/HA
              YIELD LOSS FROM RESERVOIRS
                   WATER =  10.308 MM
                   SEDIMENT =   0.315 T/HA
1
    SWAT Jun 01 2011    VER 2009/Rev. 481                                           

    General Input/Output section (file.cio):                                        
    2013/12/18 0:00:00 ARCGIS-SWAT interface AV                                     
                                                                                    
              AVE ANNUAL BASIN VALUES


              NUTRIENTS
                   ORGANIC N =     2.768 (KG/HA)
                   ORGANIC P =     0.363 (KG/HA)
                   NO3 YIELD (SQ) =     1.293 (KG/HA)
                   NO3 YIELD (SSQ) =    3.910 (KG/HA)
                   SOL P YIELD =    0.084 (KG/HA)
                   NO3 LEACHED =    34.373 (KG/HA)
                   P LEACHED =     0.228 (KG/HA)
                   N UPTAKE =    34.508 (KG/HA)
                   P UPTAKE =    5.295 (KG/HA)
                   NO3 YIELD (GWQ) =     9.807 (KG/HA)
                   ACTIVE TO SOLUTION P FLOW =        -1.004 (KG/HA)
                   ACTIVE TO STABLE P FLOW =         0.100 (KG/HA)
                   N FERTILIZER APPLIED =    45.468 (KG/HA)
                   P FERTILIZER APPLIED =     0.000 (KG/HA)
                   N FIXATION =     0.000 (KG/HA)
                   DENITRIFICATION =     0.000 (KG/HA)
                   HUMUS MIN ON ACTIVE ORG N =     6.552 (KG/HA)
                   ACTIVE TO STABLE ORG N =    -2.389 (KG/HA)
                   HUMUS MIN ON ACTIVE ORG P =    1.124 (KG/HA)
                   MIN FROM FRESH ORG N =   12.937 (KG/HA)
                   MIN FROM FRESH ORG P =    2.146 (KG/HA)
                   NO3 IN RAINFALL =    15.473 (KG/HA)
                   INITIAL NO3 IN SOIL =      51.480 (KG/HA)
                   FINAL NO3 IN SOIL =         8.938 (KG/HA)
                   INITIAL ORG N IN SOIL =    5610.777 (KG/HA)
                   FINAL ORG N IN SOIL =      5559.152 (KG/HA)
                   INITIAL MIN P IN SOIL =     605.885 (KG/HA)
                   FINAL MIN P IN SOIL =       587.100 (KG/HA)
                   INITIAL ORG P IN SOIL =     687.321 (KG/HA)
                   FINAL ORG P IN SOIL =     679.279 (KG/HA)
                   NO3 IN FERT =    45.468 (KG/HA)
                   AMMONIA IN FERT =     0.000 (KG/HA)
                   ORG N IN FERT =     0.000 (KG/HA)
                   MINERAL P IN FERT =     0.726 (KG/HA)
                   ORG P IN FERT =     0.000 (KG/HA)
                   N REMOVED IN YIELD =    15.684 (KG/HA)
                   P REMOVED IN YIELD =     1.885 (KG/HA)
                   AMMONIA VOLATILIZATION =     0.000 (KG/HA)
                   AMMONIA NITRIFICATION =      0.000 (KG/HA)
                   NO3 EVAP-LAYER 2 TO 1 =    1.550

                   DIE-GRO P Q =       0.0 (No/HA)
                   DIE-GRO LP Q =       0.0 (No/HA)
                   DIE-GRO P SED =      0.0 (No/HA)
                   DIE-GRO LP SED =      0.0 (No/HA)
                   BACT P RUNOFF =      0.0 (No/HA)
                   BACT LP RUNOFF =      0.0 (No/HA)
                   BACT P SEDIMENT =      0.0 (No/HA)
                   BACT LP SEDIMENT =      0.0 (No/HA)
                   BACT P INCORP =      0.0 (No/HA)
                   BACT LP INCORP =      0.0 (No/HA)

                   NITRATE SEPTIC =         0.00 (kg/ha)
                   AMMONIA SEPTIC =         0.00 (kg/ha)
                   ORG N SEPTIC =         0.00 (kg/ha)
                   FRESH ORGN SEPTIC =         0.00 (kg/ha)
                   ORG P SEPTIC =         0.00 (kg/ha)
                   FRESH ORGP SEPTIC =         0.00 (kg/ha)
                   SOL P SEPTIC =         0.00 (kg/ha)
                   BOD SEPTIC =         0.00 (kg/ha)
